New Load.load_p1rlv4346_2 conn=wye bus1=p1rlv4346.2 kV=0.12 Vminpu=0.8 Vmaxpu=1.2 model=1 kva=0.94501 pf=1.0 Phases=1
New Load.load_p1rlv4348_2 conn=wye bus1=p1rlv4348.2 kV=0.12 Vminpu=0.8 Vmaxpu=1.2 model=1 kva=1.585015 pf=1.0 Phases=1
New Load.load_p1rlv4349_1 conn=wye bus1=p1rlv4349.1 kV=0.12 Vminpu=0.8 Vmaxpu=1.2 model=1 kva=1.07501 pf=1.0 Phases=1
New Load.load_p1rlv4349_2 conn=wye bus1=p1rlv4349.2 kV=0.12 Vminpu=0.8 Vmaxpu=1.2 model=1 kva=1.07501 pf=1.0 Phases=1
New Load.load_p1rlv4350_2 conn=wye bus1=p1rlv4350.2 kV=0.12 Vminpu=0.8 Vmaxpu=1.2 model=1 kva=0.705005 pf=1.0 Phases=1
New Load.load_p1rlv4351_1 conn=wye bus1=p1rlv4351.1 kV=0.12 Vminpu=0.8 Vmaxpu=1.2 model=1 kva=1.12501 pf=1.0 Phases=1
New Load.load_p1rlv4351_2 conn=wye bus1=p1rlv4351.2 kV=0.12 Vminpu=0.8 Vmaxpu=1.2 model=1 kva=1.12501 pf=1.0 Phases=1
New Load.load_p1rlv4352_1 conn=wye bus1=p1rlv4352.1 kV=0.12 Vminpu=0.8 Vmaxpu=1.2 model=1 kva=0.90001 pf=1.0 Phases=1
New Load.load_p1rlv4352_2 conn=wye bus1=p1rlv4352.2 kV=0.12 Vminpu=0.8 Vmaxpu=1.2 model=1 kva=0.90001 pf=1.0 Phases=1
New Load.load_p1rlv4353_1 conn=wye bus1=p1rlv4353.1 kV=0.12 Vminpu=0.8 Vmaxpu=1.2 model=1 kva=0.550005 pf=1.0 Phases=1
New Load.load_p1rlv4354_1 conn=wye bus1=p1rlv4354.1 kV=0.12 Vminpu=0.8 Vmaxpu=1.2 model=1 kva=0.625005 pf=1.0 Phases=1
New Load.load_p1rlv4354_2 conn=wye bus1=p1rlv4354.2 kV=0.12 Vminpu=0.8 Vmaxpu=1.2 model=1 kva=0.625005 pf=1.0 Phases=1
New Load.load_p1rlv4355_1 conn=wye bus1=p1rlv4355.1 kV=0.12 Vminpu=0.8 Vmaxpu=1.2 model=1 kva=0.80501 pf=1.0 Phases=1
New Load.load_p1rlv4355_2 conn=wye bus1=p1rlv4355.2 kV=0.12 Vminpu=0.8 Vmaxpu=1.2 model=1 kva=0.80501 pf=1.0 Phases=1
New Load.load_p1rlv4356_1 conn=wye bus1=p1rlv4356.1 kV=0.12 Vminpu=0.8 Vmaxpu=1.2 model=1 kva=0.535005 pf=1.0 Phases=1
New Load.load_p1rlv4356_2 conn=wye bus1=p1rlv4356.2 kV=0.12 Vminpu=0.8 Vmaxpu=1.2 model=1 kva=0.535005 pf=1.0 Phases=1
New Load.load_p1rlv4357_1 conn=wye bus1=p1rlv4357.1 kV=0.12 Vminpu=0.8 Vmaxpu=1.2 model=1 kva=0.740005 pf=1.0 Phases=1
New Load.load_p1rlv4357_2 conn=wye bus1=p1rlv4357.2 kV=0.12 Vminpu=0.8 Vmaxpu=1.2 model=1 kva=0.740005 pf=1.0 Phases=1
New Load.load_p1rlv4358_2 conn=wye bus1=p1rlv4358.2 kV=0.12 Vminpu=0.8 Vmaxpu=1.2 model=1 kva=0.3500035 pf=1.0 Phases=1
New Load.load_p1rlv4614_1 conn=wye bus1=p1rlv4614.1 kV=0.12 Vminpu=0.8 Vmaxpu=1.2 model=1 kva=1.04001 pf=1.0 Phases=1
New Load.load_p1rlv4615_1 conn=wye bus1=p1rlv4615.1 kV=0.12 Vminpu=0.8 Vmaxpu=1.2 model=1 kva=1.480015 pf=1.0 Phases=1
New Load.load_p1rlv4616 conn=wye bus1=p1rlv4616.1.2.3 kV=0.48 Vminpu=0.8 Vmaxpu=1.2 model=1 kva=51.68050000000001 pf=1.0 Phases=3
New Load.load_p1rlv4617_2 conn=wye bus1=p1rlv4617.2 kV=0.12 Vminpu=0.8 Vmaxpu=1.2 model=1 kva=0.4350045 pf=1.0 Phases=1
New Load.load_p1rlv4618_1 conn=wye bus1=p1rlv4618.1 kV=0.12 Vminpu=0.8 Vmaxpu=1.2 model=1 kva=0.76501 pf=1.0 Phases=1
New Load.load_p1rlv4619_1 conn=wye bus1=p1rlv4619.1 kV=0.12 Vminpu=0.8 Vmaxpu=1.2 model=1 kva=0.97501 pf=1.0 Phases=1
New Load.load_p1rlv4619_2 conn=wye bus1=p1rlv4619.2 kV=0.12 Vminpu=0.8 Vmaxpu=1.2 model=1 kva=0.97501 pf=1.0 Phases=1
New Load.load_p1rlv4620_1 conn=wye bus1=p1rlv4620.1 kV=0.12 Vminpu=0.8 Vmaxpu=1.2 model=1 kva=1.18001 pf=1.0 Phases=1
New Load.load_p1rlv4620_2 conn=wye bus1=p1rlv4620.2 kV=0.12 Vminpu=0.8 Vmaxpu=1.2 model=1 kva=1.18001 pf=1.0 Phases=1
New Load.load_p1rlv4621_1 conn=wye bus1=p1rlv4621.1 kV=0.12 Vminpu=0.8 Vmaxpu=1.2 model=1 kva=0.83001 pf=1.0 Phases=1
New Load.load_p1rlv4621_2 conn=wye bus1=p1rlv4621.2 kV=0.12 Vminpu=0.8 Vmaxpu=1.2 model=1 kva=0.83001 pf=1.0 Phases=1
New Load.load_p1rlv4622_1 conn=wye bus1=p1rlv4622.1 kV=0.12 Vminpu=0.8 Vmaxpu=1.2 model=1 kva=0.695005 pf=1.0 Phases=1
New Load.load_p1rlv4622_2 conn=wye bus1=p1rlv4622.2 kV=0.12 Vminpu=0.8 Vmaxpu=1.2 model=1 kva=0.695005 pf=1.0 Phases=1
New Load.load_p1rlv4623_2 conn=wye bus1=p1rlv4623.2 kV=0.12 Vminpu=0.8 Vmaxpu=1.2 model=1 kva=0.94501 pf=1.0 Phases=1
New Load.load_p1rlv4624_1 conn=wye bus1=p1rlv4624.1 kV=0.12 Vminpu=0.8 Vmaxpu=1.2 model=1 kva=1.09501 pf=1.0 Phases=1
New Load.load_p1rlv4624_2 conn=wye bus1=p1rlv4624.2 kV=0.12 Vminpu=0.8 Vmaxpu=1.2 model=1 kva=1.09501 pf=1.0 Phases=1
New Load.load_p1rlv4625_2 conn=wye bus1=p1rlv4625.2 kV=0.12 Vminpu=0.8 Vmaxpu=1.2 model=1 kva=0.6600050000000001 pf=1.0 Phases=1
New Load.load_p1rlv4626_1 conn=wye bus1=p1rlv4626.1 kV=0.12 Vminpu=0.8 Vmaxpu=1.2 model=1 kva=0.6600050000000001 pf=1.0 Phases=1
New Load.load_p1rlv4626_2 conn=wye bus1=p1rlv4626.2 kV=0.12 Vminpu=0.8 Vmaxpu=1.2 model=1 kva=0.6600050000000001 pf=1.0 Phases=1
New Load.load_p1rlv4627_1 conn=wye bus1=p1rlv4627.1 kV=0.12 Vminpu=0.8 Vmaxpu=1.2 model=1 kva=0.605005 pf=1.0 Phases=1
New Load.load_p1rlv4627_2 conn=wye bus1=p1rlv4627.2 kV=0.12 Vminpu=0.8 Vmaxpu=1.2 model=1 kva=0.605005 pf=1.0 Phases=1
New Load.load_p1rlv4628_1 conn=wye bus1=p1rlv4628.1 kV=0.12 Vminpu=0.8 Vmaxpu=1.2 model=1 kva=0.84001 pf=1.0 Phases=1
New Load.load_p1rlv4628_2 conn=wye bus1=p1rlv4628.2 kV=0.12 Vminpu=0.8 Vmaxpu=1.2 model=1 kva=0.84001 pf=1.0 Phases=1
New Load.load_p1rlv4629_2 conn=wye bus1=p1rlv4629.2 kV=0.12 Vminpu=0.8 Vmaxpu=1.2 model=1 kva=0.94501 pf=1.0 Phases=1
New Load.load_p1rlv4630_2 conn=wye bus1=p1rlv4630.2 kV=0.12 Vminpu=0.8 Vmaxpu=1.2 model=1 kva=0.685005 pf=1.0 Phases=1
New Load.load_p1rlv4631_1 conn=wye bus1=p1rlv4631.1 kV=0.12 Vminpu=0.8 Vmaxpu=1.2 model=1 kva=0.600005 pf=1.0 Phases=1
New Load.load_p1rlv4631_2 conn=wye bus1=p1rlv4631.2 kV=0.12 Vminpu=0.8 Vmaxpu=1.2 model=1 kva=0.600005 pf=1.0 Phases=1
New Load.load_p1rlv4632_2 conn=wye bus1=p1rlv4632.2 kV=0.12 Vminpu=0.8 Vmaxpu=1.2 model=1 kva=0.89501 pf=1.0 Phases=1
New Load.load_p1rlv4633_2 conn=wye bus1=p1rlv4633.2 kV=0.12 Vminpu=0.8 Vmaxpu=1.2 model=1 kva=0.84001 pf=1.0 Phases=1
New Load.load_p1rlv4634_2 conn=wye bus1=p1rlv4634.2 kV=0.12 Vminpu=0.8 Vmaxpu=1.2 model=1 kva=0.8650100000000001 pf=1.0 Phases=1
New Load.load_p1rlv4637_1 conn=wye bus1=p1rlv4637.1 kV=0.12 Vminpu=0.8 Vmaxpu=1.2 model=1 kva=1.475015 pf=1.0 Phases=1
New Load.load_p1rlv4638_1 conn=wye bus1=p1rlv4638.1 kV=0.12 Vminpu=0.8 Vmaxpu=1.2 model=1 kva=0.78501 pf=1.0 Phases=1
New Load.load_p1rlv4638_2 conn=wye bus1=p1rlv4638.2 kV=0.12 Vminpu=0.8 Vmaxpu=1.2 model=1 kva=0.78501 pf=1.0 Phases=1
New Load.load_p1rlv4639_1 conn=wye bus1=p1rlv4639.1 kV=0.12 Vminpu=0.8 Vmaxpu=1.2 model=1 kva=0.79001 pf=1.0 Phases=1
New Load.load_p1rlv4640_1 conn=wye bus1=p1rlv4640.1 kV=0.12 Vminpu=0.8 Vmaxpu=1.2 model=1 kva=0.93001 pf=1.0 Phases=1
New Load.load_p1rlv4640_2 conn=wye bus1=p1rlv4640.2 kV=0.12 Vminpu=0.8 Vmaxpu=1.2 model=1 kva=0.93001 pf=1.0 Phases=1
New Load.load_p1rlv4641_1 conn=wye bus1=p1rlv4641.1 kV=0.12 Vminpu=0.8 Vmaxpu=1.2 model=1 kva=0.520005 pf=1.0 Phases=1
New Load.load_p1rlv4641_2 conn=wye bus1=p1rlv4641.2 kV=0.12 Vminpu=0.8 Vmaxpu=1.2 model=1 kva=0.520005 pf=1.0 Phases=1
New Load.load_p1rlv4642_2 conn=wye bus1=p1rlv4642.2 kV=0.12 Vminpu=0.8 Vmaxpu=1.2 model=1 kva=1.03501 pf=1.0 Phases=1
New Load.load_p1rlv4644_2 conn=wye bus1=p1rlv4644.2 kV=0.12 Vminpu=0.8 Vmaxpu=1.2 model=1 kva=0.625005 pf=1.0 Phases=1
New Load.load_p1rlv4645_1 conn=wye bus1=p1rlv4645.1 kV=0.12 Vminpu=0.8 Vmaxpu=1.2 model=1 kva=1.22001 pf=1.0 Phases=1
New Load.load_p1rlv4646_1 conn=wye bus1=p1rlv4646.1 kV=0.12 Vminpu=0.8 Vmaxpu=1.2 model=1 kva=0.97001 pf=1.0 Phases=1
New Load.load_p1rlv4647_2 conn=wye bus1=p1rlv4647.2 kV=0.12 Vminpu=0.8 Vmaxpu=1.2 model=1 kva=1.335015 pf=1.0 Phases=1
New Load.load_p1rlv4648_1 conn=wye bus1=p1rlv4648.1 kV=0.12 Vminpu=0.8 Vmaxpu=1.2 model=1 kva=0.4250045 pf=1.0 Phases=1
New Load.load_p1rlv4648_2 conn=wye bus1=p1rlv4648.2 kV=0.12 Vminpu=0.8 Vmaxpu=1.2 model=1 kva=0.4250045 pf=1.0 Phases=1
New Load.load_p1rlv4649_1 conn=wye bus1=p1rlv4649.1 kV=0.12 Vminpu=0.8 Vmaxpu=1.2 model=1 kva=0.600005 pf=1.0 Phases=1
New Load.load_p1rlv4650_2 conn=wye bus1=p1rlv4650.2 kV=0.12 Vminpu=0.8 Vmaxpu=1.2 model=1 kva=0.720005 pf=1.0 Phases=1
New Load.load_p1rlv4651_1 conn=wye bus1=p1rlv4651.1 kV=0.12 Vminpu=0.8 Vmaxpu=1.2 model=1 kva=0.580005 pf=1.0 Phases=1
New Load.load_p1rlv4651_2 conn=wye bus1=p1rlv4651.2 kV=0.12 Vminpu=0.8 Vmaxpu=1.2 model=1 kva=0.580005 pf=1.0 Phases=1
New Load.load_p1rlv4652_1 conn=wye bus1=p1rlv4652.1 kV=0.12 Vminpu=0.8 Vmaxpu=1.2 model=1 kva=0.96001 pf=1.0 Phases=1
New Load.load_p1rlv4653_1 conn=wye bus1=p1rlv4653.1 kV=0.12 Vminpu=0.8 Vmaxpu=1.2 model=1 kva=0.605005 pf=1.0 Phases=1
New Load.load_p1rlv4653_2 conn=wye bus1=p1rlv4653.2 kV=0.12 Vminpu=0.8 Vmaxpu=1.2 model=1 kva=0.605005 pf=1.0 Phases=1
New Load.load_p1rlv4654_1 conn=wye bus1=p1rlv4654.1 kV=0.12 Vminpu=0.8 Vmaxpu=1.2 model=1 kva=0.82001 pf=1.0 Phases=1
New Load.load_p1rlv4654_2 conn=wye bus1=p1rlv4654.2 kV=0.12 Vminpu=0.8 Vmaxpu=1.2 model=1 kva=0.82001 pf=1.0 Phases=1
New Load.load_p1rlv4655_1 conn=wye bus1=p1rlv4655.1 kV=0.12 Vminpu=0.8 Vmaxpu=1.2 model=1 kva=1.22001 pf=1.0 Phases=1
New Load.load_p1rlv4655_2 conn=wye bus1=p1rlv4655.2 kV=0.12 Vminpu=0.8 Vmaxpu=1.2 model=1 kva=1.22001 pf=1.0 Phases=1
New Load.load_p1rlv4656_1 conn=wye bus1=p1rlv4656.1 kV=0.12 Vminpu=0.8 Vmaxpu=1.2 model=1 kva=1.14501 pf=1.0 Phases=1
New Load.load_p1rlv4657_1 conn=wye bus1=p1rlv4657.1 kV=0.12 Vminpu=0.8 Vmaxpu=1.2 model=1 kva=0.705005 pf=1.0 Phases=1
New Load.load_p1rlv4657_2 conn=wye bus1=p1rlv4657.2 kV=0.12 Vminpu=0.8 Vmaxpu=1.2 model=1 kva=0.705005 pf=1.0 Phases=1
New Load.load_p1rlv4658_1 conn=wye bus1=p1rlv4658.1 kV=0.12 Vminpu=0.8 Vmaxpu=1.2 model=1 kva=0.79001 pf=1.0 Phases=1
New Load.load_p1rlv4658_2 conn=wye bus1=p1rlv4658.2 kV=0.12 Vminpu=0.8 Vmaxpu=1.2 model=1 kva=0.79001 pf=1.0 Phases=1
New Load.load_p1rlv4659_1 conn=wye bus1=p1rlv4659.1 kV=0.12 Vminpu=0.8 Vmaxpu=1.2 model=1 kva=0.98001 pf=1.0 Phases=1
New Load.load_p1rlv4660_1 conn=wye bus1=p1rlv4660.1 kV=0.12 Vminpu=0.8 Vmaxpu=1.2 model=1 kva=1.485015 pf=1.0 Phases=1
New Load.load_p1rlv4661_1 conn=wye bus1=p1rlv4661.1 kV=0.12 Vminpu=0.8 Vmaxpu=1.2 model=1 kva=0.395004 pf=1.0 Phases=1
New Load.load_p1rlv4661_2 conn=wye bus1=p1rlv4661.2 kV=0.12 Vminpu=0.8 Vmaxpu=1.2 model=1 kva=0.395004 pf=1.0 Phases=1
New Load.load_p1rlv4662_1 conn=wye bus1=p1rlv4662.1 kV=0.12 Vminpu=0.8 Vmaxpu=1.2 model=1 kva=0.395004 pf=1.0 Phases=1
New Load.load_p1rlv4662_2 conn=wye bus1=p1rlv4662.2 kV=0.12 Vminpu=0.8 Vmaxpu=1.2 model=1 kva=0.395004 pf=1.0 Phases=1
New Load.load_p1rlv4663_2 conn=wye bus1=p1rlv4663.2 kV=0.12 Vminpu=0.8 Vmaxpu=1.2 model=1 kva=0.575005 pf=1.0 Phases=1
New Load.load_p1rlv4664_2 conn=wye bus1=p1rlv4664.2 kV=0.12 Vminpu=0.8 Vmaxpu=1.2 model=1 kva=0.75001 pf=1.0 Phases=1
New Load.load_p1rlv4665_1 conn=wye bus1=p1rlv4665.1 kV=0.12 Vminpu=0.8 Vmaxpu=1.2 model=1 kva=0.96501 pf=1.0 Phases=1
New Load.load_p1rlv4665_2 conn=wye bus1=p1rlv4665.2 kV=0.12 Vminpu=0.8 Vmaxpu=1.2 model=1 kva=0.96501 pf=1.0 Phases=1
New Load.load_p1rlv4667_1 conn=wye bus1=p1rlv4667.1 kV=0.12 Vminpu=0.8 Vmaxpu=1.2 model=1 kva=1.24001 pf=1.0 Phases=1
New Load.load_p1rlv4667_2 conn=wye bus1=p1rlv4667.2 kV=0.12 Vminpu=0.8 Vmaxpu=1.2 model=1 kva=1.24001 pf=1.0 Phases=1
New Load.load_p1rlv4668_1 conn=wye bus1=p1rlv4668.1 kV=0.12 Vminpu=0.8 Vmaxpu=1.2 model=1 kva=1.2750150000000002 pf=1.0 Phases=1
New Load.load_p1rlv4669_2 conn=wye bus1=p1rlv4669.2 kV=0.12 Vminpu=0.8 Vmaxpu=1.2 model=1 kva=1.23001 pf=1.0 Phases=1
New Load.load_p1rlv4670_1 conn=wye bus1=p1rlv4670.1 kV=0.12 Vminpu=0.8 Vmaxpu=1.2 model=1 kva=0.79501 pf=1.0 Phases=1
New Load.load_p1rlv4670_2 conn=wye bus1=p1rlv4670.2 kV=0.12 Vminpu=0.8 Vmaxpu=1.2 model=1 kva=0.79501 pf=1.0 Phases=1
New Load.load_p1rlv4671_1 conn=wye bus1=p1rlv4671.1 kV=0.12 Vminpu=0.8 Vmaxpu=1.2 model=1 kva=0.620005 pf=1.0 Phases=1
New Load.load_p1rlv4672_1 conn=wye bus1=p1rlv4672.1 kV=0.12 Vminpu=0.8 Vmaxpu=1.2 model=1 kva=0.690005 pf=1.0 Phases=1
New Load.load_p1rlv4672_2 conn=wye bus1=p1rlv4672.2 kV=0.12 Vminpu=0.8 Vmaxpu=1.2 model=1 kva=0.690005 pf=1.0 Phases=1
New Load.load_p1rlv4673_1 conn=wye bus1=p1rlv4673.1 kV=0.12 Vminpu=0.8 Vmaxpu=1.2 model=1 kva=0.630005 pf=1.0 Phases=1
New Load.load_p1rlv4674_2 conn=wye bus1=p1rlv4674.2 kV=0.12 Vminpu=0.8 Vmaxpu=1.2 model=1 kva=0.84501 pf=1.0 Phases=1
New Load.load_p1rlv4675_1 conn=wye bus1=p1rlv4675.1 kV=0.12 Vminpu=0.8 Vmaxpu=1.2 model=1 kva=0.85001 pf=1.0 Phases=1
New Load.load_p1rlv4675_2 conn=wye bus1=p1rlv4675.2 kV=0.12 Vminpu=0.8 Vmaxpu=1.2 model=1 kva=0.85001 pf=1.0 Phases=1
New Load.load_p1rlv4676_1 conn=wye bus1=p1rlv4676.1 kV=0.12 Vminpu=0.8 Vmaxpu=1.2 model=1 kva=1.565015 pf=1.0 Phases=1
New Load.load_p1rlv4677_1 conn=wye bus1=p1rlv4677.1 kV=0.12 Vminpu=0.8 Vmaxpu=1.2 model=1 kva=1.310015 pf=1.0 Phases=1
New Load.load_p1rlv4678_1 conn=wye bus1=p1rlv4678.1 kV=0.12 Vminpu=0.8 Vmaxpu=1.2 model=1 kva=0.570005 pf=1.0 Phases=1
New Load.load_p1rlv4678_2 conn=wye bus1=p1rlv4678.2 kV=0.12 Vminpu=0.8 Vmaxpu=1.2 model=1 kva=0.570005 pf=1.0 Phases=1
New Load.load_p1rlv4679_1 conn=wye bus1=p1rlv4679.1 kV=0.12 Vminpu=0.8 Vmaxpu=1.2 model=1 kva=0.695005 pf=1.0 Phases=1
New Load.load_p1rlv4680_1 conn=wye bus1=p1rlv4680.1 kV=0.12 Vminpu=0.8 Vmaxpu=1.2 model=1 kva=0.91001 pf=1.0 Phases=1
New Load.load_p1rlv4680_2 conn=wye bus1=p1rlv4680.2 kV=0.12 Vminpu=0.8 Vmaxpu=1.2 model=1 kva=0.91001 pf=1.0 Phases=1
New Load.load_p1rlv4681_1 conn=wye bus1=p1rlv4681.1 kV=0.12 Vminpu=0.8 Vmaxpu=1.2 model=1 kva=1.21501 pf=1.0 Phases=1
New Load.load_p1rlv4681_2 conn=wye bus1=p1rlv4681.2 kV=0.12 Vminpu=0.8 Vmaxpu=1.2 model=1 kva=1.21501 pf=1.0 Phases=1
New Load.load_p1rlv4682_1 conn=wye bus1=p1rlv4682.1 kV=0.12 Vminpu=0.8 Vmaxpu=1.2 model=1 kva=1.260015 pf=1.0 Phases=1
New Load.load_p1rlv4682_2 conn=wye bus1=p1rlv4682.2 kV=0.12 Vminpu=0.8 Vmaxpu=1.2 model=1 kva=1.260015 pf=1.0 Phases=1
New Load.load_p1rlv4683_1 conn=wye bus1=p1rlv4683.1 kV=0.12 Vminpu=0.8 Vmaxpu=1.2 model=1 kva=1.580015 pf=1.0 Phases=1
New Load.load_p1rlv4683_2 conn=wye bus1=p1rlv4683.2 kV=0.12 Vminpu=0.8 Vmaxpu=1.2 model=1 kva=1.580015 pf=1.0 Phases=1
New Load.load_p1rlv4684_1 conn=wye bus1=p1rlv4684.1 kV=0.12 Vminpu=0.8 Vmaxpu=1.2 model=1 kva=0.84501 pf=1.0 Phases=1
New Load.load_p1rlv4684_2 conn=wye bus1=p1rlv4684.2 kV=0.12 Vminpu=0.8 Vmaxpu=1.2 model=1 kva=0.84501 pf=1.0 Phases=1
New Load.load_p1rlv4685_1 conn=wye bus1=p1rlv4685.1 kV=0.12 Vminpu=0.8 Vmaxpu=1.2 model=1 kva=1.520015 pf=1.0 Phases=1
New Load.load_p1rlv4685_2 conn=wye bus1=p1rlv4685.2 kV=0.12 Vminpu=0.8 Vmaxpu=1.2 model=1 kva=1.520015 pf=1.0 Phases=1
New Load.load_p1rlv4686_1 conn=wye bus1=p1rlv4686.1 kV=0.12 Vminpu=0.8 Vmaxpu=1.2 model=1 kva=0.76001 pf=1.0 Phases=1
New Load.load_p1rlv4687_1 conn=wye bus1=p1rlv4687.1 kV=0.12 Vminpu=0.8 Vmaxpu=1.2 model=1 kva=0.680005 pf=1.0 Phases=1
New Load.load_p1rlv4687_2 conn=wye bus1=p1rlv4687.2 kV=0.12 Vminpu=0.8 Vmaxpu=1.2 model=1 kva=0.680005 pf=1.0 Phases=1
New Load.load_p1rlv4816_2 conn=wye bus1=p1rlv4816.2 kV=0.12 Vminpu=0.8 Vmaxpu=1.2 model=1 kva=8.760100000000001 pf=1.0 Phases=1
New Load.load_p1rlv4817_1 conn=wye bus1=p1rlv4817.1 kV=0.12 Vminpu=0.8 Vmaxpu=1.2 model=1 kva=4.78505 pf=1.0 Phases=1
New Load.load_p1rlv4819_1 conn=wye bus1=p1rlv4819.1 kV=0.12 Vminpu=0.8 Vmaxpu=1.2 model=1 kva=3.09503 pf=1.0 Phases=1
New Load.load_p1rlv4819_2 conn=wye bus1=p1rlv4819.2 kV=0.12 Vminpu=0.8 Vmaxpu=1.2 model=1 kva=3.09503 pf=1.0 Phases=1
New Load.load_p1rlv4820_1 conn=wye bus1=p1rlv4820.1 kV=0.12 Vminpu=0.8 Vmaxpu=1.2 model=1 kva=3.635035 pf=1.0 Phases=1
New Load.load_p1rlv4821 conn=wye bus1=p1rlv4821.1.2.3 kV=0.48 Vminpu=0.8 Vmaxpu=1.2 model=1 kva=20.360200000000003 pf=1.0 Phases=3
New Load.load_p1rlv4822_2 conn=wye bus1=p1rlv4822.2 kV=0.12 Vminpu=0.8 Vmaxpu=1.2 model=1 kva=1.445015 pf=1.0 Phases=1
New Load.load_p1rlv4823 conn=wye bus1=p1rlv4823.1.2.3 kV=0.48 Vminpu=0.8 Vmaxpu=1.2 model=1 kva=75.9508 pf=1.0 Phases=3
New Load.load_p1rlv4824_1 conn=wye bus1=p1rlv4824.1 kV=0.12 Vminpu=0.8 Vmaxpu=1.2 model=1 kva=1.10501 pf=1.0 Phases=1
New Load.load_p1rlv4824_2 conn=wye bus1=p1rlv4824.2 kV=0.12 Vminpu=0.8 Vmaxpu=1.2 model=1 kva=1.10501 pf=1.0 Phases=1
New Load.load_p1rlv4825_1 conn=wye bus1=p1rlv4825.1 kV=0.12 Vminpu=0.8 Vmaxpu=1.2 model=1 kva=0.78001 pf=1.0 Phases=1
New Load.load_p1rlv4826_1 conn=wye bus1=p1rlv4826.1 kV=0.12 Vminpu=0.8 Vmaxpu=1.2 model=1 kva=0.98001 pf=1.0 Phases=1
New Load.load_p1rlv4827_1 conn=wye bus1=p1rlv4827.1 kV=0.12 Vminpu=0.8 Vmaxpu=1.2 model=1 kva=1.285015 pf=1.0 Phases=1
New Load.load_p1rlv4827_2 conn=wye bus1=p1rlv4827.2 kV=0.12 Vminpu=0.8 Vmaxpu=1.2 model=1 kva=1.285015 pf=1.0 Phases=1
New Load.load_p1rlv4828_1 conn=wye bus1=p1rlv4828.1 kV=0.12 Vminpu=0.8 Vmaxpu=1.2 model=1 kva=0.90501 pf=1.0 Phases=1
New Load.load_p1rlv4828_2 conn=wye bus1=p1rlv4828.2 kV=0.12 Vminpu=0.8 Vmaxpu=1.2 model=1 kva=0.90501 pf=1.0 Phases=1
New Load.load_p1rlv5994_1 conn=wye bus1=p1rlv5994.1 kV=0.12 Vminpu=0.8 Vmaxpu=1.2 model=1 kva=0.565005 pf=1.0 Phases=1
New Load.load_p1rlv5995_1 conn=wye bus1=p1rlv5995.1 kV=0.12 Vminpu=0.8 Vmaxpu=1.2 model=1 kva=0.725005 pf=1.0 Phases=1
New Load.load_p1rlv5996_1 conn=wye bus1=p1rlv5996.1 kV=0.12 Vminpu=0.8 Vmaxpu=1.2 model=1 kva=0.8700100000000001 pf=1.0 Phases=1
New Load.load_p1rlv5996_2 conn=wye bus1=p1rlv5996.2 kV=0.12 Vminpu=0.8 Vmaxpu=1.2 model=1 kva=0.8700100000000001 pf=1.0 Phases=1
New Load.load_p1rlv5997_1 conn=wye bus1=p1rlv5997.1 kV=0.12 Vminpu=0.8 Vmaxpu=1.2 model=1 kva=0.95001 pf=1.0 Phases=1
New Load.load_p1rlv5997_2 conn=wye bus1=p1rlv5997.2 kV=0.12 Vminpu=0.8 Vmaxpu=1.2 model=1 kva=0.95001 pf=1.0 Phases=1
New Load.load_p1rlv5998_1 conn=wye bus1=p1rlv5998.1 kV=0.12 Vminpu=0.8 Vmaxpu=1.2 model=1 kva=0.565005 pf=1.0 Phases=1
New Load.load_p1rlv5998_2 conn=wye bus1=p1rlv5998.2 kV=0.12 Vminpu=0.8 Vmaxpu=1.2 model=1 kva=0.565005 pf=1.0 Phases=1
New Load.load_p1rlv5999_1 conn=wye bus1=p1rlv5999.1 kV=0.12 Vminpu=0.8 Vmaxpu=1.2 model=1 kva=1.03001 pf=1.0 Phases=1
New Load.load_p1rlv5999_2 conn=wye bus1=p1rlv5999.2 kV=0.12 Vminpu=0.8 Vmaxpu=1.2 model=1 kva=1.03001 pf=1.0 Phases=1
New Load.load_p1rlv6001_1 conn=wye bus1=p1rlv6001.1 kV=0.12 Vminpu=0.8 Vmaxpu=1.2 model=1 kva=0.84001 pf=1.0 Phases=1
New Load.load_p1rlv6001_2 conn=wye bus1=p1rlv6001.2 kV=0.12 Vminpu=0.8 Vmaxpu=1.2 model=1 kva=0.84001 pf=1.0 Phases=1
New Load.load_p1rlv6002_2 conn=wye bus1=p1rlv6002.2 kV=0.12 Vminpu=0.8 Vmaxpu=1.2 model=1 kva=0.85501 pf=1.0 Phases=1
New Load.load_p1rlv6004_1 conn=wye bus1=p1rlv6004.1 kV=0.12 Vminpu=0.8 Vmaxpu=1.2 model=1 kva=1.260015 pf=1.0 Phases=1
New Load.load_p1rlv6006_1 conn=wye bus1=p1rlv6006.1 kV=0.12 Vminpu=0.8 Vmaxpu=1.2 model=1 kva=0.94001 pf=1.0 Phases=1
New Load.load_p1rlv6007_1 conn=wye bus1=p1rlv6007.1 kV=0.12 Vminpu=0.8 Vmaxpu=1.2 model=1 kva=0.6600050000000001 pf=1.0 Phases=1
New Load.load_p1rlv6007_2 conn=wye bus1=p1rlv6007.2 kV=0.12 Vminpu=0.8 Vmaxpu=1.2 model=1 kva=0.6600050000000001 pf=1.0 Phases=1
New Load.load_p1rlv6008_1 conn=wye bus1=p1rlv6008.1 kV=0.12 Vminpu=0.8 Vmaxpu=1.2 model=1 kva=1.475015 pf=1.0 Phases=1
New Load.load_p1rlv6008_2 conn=wye bus1=p1rlv6008.2 kV=0.12 Vminpu=0.8 Vmaxpu=1.2 model=1 kva=1.475015 pf=1.0 Phases=1
New Load.load_p1rlv6009_1 conn=wye bus1=p1rlv6009.1 kV=0.12 Vminpu=0.8 Vmaxpu=1.2 model=1 kva=1.305015 pf=1.0 Phases=1
New Load.load_p1rlv6009_2 conn=wye bus1=p1rlv6009.2 kV=0.12 Vminpu=0.8 Vmaxpu=1.2 model=1 kva=1.305015 pf=1.0 Phases=1
New Load.load_p1rlv6010_1 conn=wye bus1=p1rlv6010.1 kV=0.12 Vminpu=0.8 Vmaxpu=1.2 model=1 kva=0.4500045 pf=1.0 Phases=1
New Load.load_p1rlv6010_2 conn=wye bus1=p1rlv6010.2 kV=0.12 Vminpu=0.8 Vmaxpu=1.2 model=1 kva=0.4500045 pf=1.0 Phases=1
New Load.load_p1rlv6011_1 conn=wye bus1=p1rlv6011.1 kV=0.12 Vminpu=0.8 Vmaxpu=1.2 model=1 kva=1.310015 pf=1.0 Phases=1
New Load.load_p1rlv6266_2 conn=wye bus1=p1rlv6266.2 kV=0.12 Vminpu=0.8 Vmaxpu=1.2 model=1 kva=0.98001 pf=1.0 Phases=1
New Load.load_p1rlv6267_2 conn=wye bus1=p1rlv6267.2 kV=0.12 Vminpu=0.8 Vmaxpu=1.2 model=1 kva=0.92001 pf=1.0 Phases=1
New Load.load_p1rlv6268_1 conn=wye bus1=p1rlv6268.1 kV=0.12 Vminpu=0.8 Vmaxpu=1.2 model=1 kva=1.18001 pf=1.0 Phases=1
New Load.load_p1rlv6268_2 conn=wye bus1=p1rlv6268.2 kV=0.12 Vminpu=0.8 Vmaxpu=1.2 model=1 kva=1.18001 pf=1.0 Phases=1
New Load.load_p1rlv6269_1 conn=wye bus1=p1rlv6269.1 kV=0.12 Vminpu=0.8 Vmaxpu=1.2 model=1 kva=0.9850100000000002 pf=1.0 Phases=1
New Load.load_p1rlv6269_2 conn=wye bus1=p1rlv6269.2 kV=0.12 Vminpu=0.8 Vmaxpu=1.2 model=1 kva=0.9850100000000002 pf=1.0 Phases=1
New Load.load_p1rlv6270_2 conn=wye bus1=p1rlv6270.2 kV=0.12 Vminpu=0.8 Vmaxpu=1.2 model=1 kva=0.97001 pf=1.0 Phases=1
New Load.load_p1rlv6271_1 conn=wye bus1=p1rlv6271.1 kV=0.12 Vminpu=0.8 Vmaxpu=1.2 model=1 kva=0.485005 pf=1.0 Phases=1
New Load.load_p1rlv6272_1 conn=wye bus1=p1rlv6272.1 kV=0.12 Vminpu=0.8 Vmaxpu=1.2 model=1 kva=0.88501 pf=1.0 Phases=1
New Load.load_p1rlv6272_2 conn=wye bus1=p1rlv6272.2 kV=0.12 Vminpu=0.8 Vmaxpu=1.2 model=1 kva=0.88501 pf=1.0 Phases=1
New Load.load_p1rlv6273_1 conn=wye bus1=p1rlv6273.1 kV=0.12 Vminpu=0.8 Vmaxpu=1.2 model=1 kva=0.94001 pf=1.0 Phases=1
New Load.load_p1rlv6274_2 conn=wye bus1=p1rlv6274.2 kV=0.12 Vminpu=0.8 Vmaxpu=1.2 model=1 kva=0.85001 pf=1.0 Phases=1
New Load.load_p1rlv6275_1 conn=wye bus1=p1rlv6275.1 kV=0.12 Vminpu=0.8 Vmaxpu=1.2 model=1 kva=0.8700100000000001 pf=1.0 Phases=1
New Load.load_p1rlv6275_2 conn=wye bus1=p1rlv6275.2 kV=0.12 Vminpu=0.8 Vmaxpu=1.2 model=1 kva=0.8700100000000001 pf=1.0 Phases=1
New Load.load_p1rlv6276_1 conn=wye bus1=p1rlv6276.1 kV=0.12 Vminpu=0.8 Vmaxpu=1.2 model=1 kva=1.395015 pf=1.0 Phases=1
New Load.load_p1rlv6276_2 conn=wye bus1=p1rlv6276.2 kV=0.12 Vminpu=0.8 Vmaxpu=1.2 model=1 kva=1.395015 pf=1.0 Phases=1
New Load.load_p1rlv6277_2 conn=wye bus1=p1rlv6277.2 kV=0.12 Vminpu=0.8 Vmaxpu=1.2 model=1 kva=1.20001 pf=1.0 Phases=1
New Load.load_p1rlv6279_2 conn=wye bus1=p1rlv6279.2 kV=0.12 Vminpu=0.8 Vmaxpu=1.2 model=1 kva=1.395015 pf=1.0 Phases=1
New Load.load_p1rlv6280_1 conn=wye bus1=p1rlv6280.1 kV=0.12 Vminpu=0.8 Vmaxpu=1.2 model=1 kva=1.14001 pf=1.0 Phases=1
New Load.load_p1rlv6280_2 conn=wye bus1=p1rlv6280.2 kV=0.12 Vminpu=0.8 Vmaxpu=1.2 model=1 kva=1.14001 pf=1.0 Phases=1
New Load.load_p1rlv6281_1 conn=wye bus1=p1rlv6281.1 kV=0.12 Vminpu=0.8 Vmaxpu=1.2 model=1 kva=0.9950100000000001 pf=1.0 Phases=1
New Load.load_p1rlv6281_2 conn=wye bus1=p1rlv6281.2 kV=0.12 Vminpu=0.8 Vmaxpu=1.2 model=1 kva=0.9950100000000001 pf=1.0 Phases=1
New Load.load_p1rlv6282_1 conn=wye bus1=p1rlv6282.1 kV=0.12 Vminpu=0.8 Vmaxpu=1.2 model=1 kva=0.9900100000000001 pf=1.0 Phases=1
New Load.load_p1rlv6282_2 conn=wye bus1=p1rlv6282.2 kV=0.12 Vminpu=0.8 Vmaxpu=1.2 model=1 kva=0.9900100000000001 pf=1.0 Phases=1
New Load.load_p1rlv6283_2 conn=wye bus1=p1rlv6283.2 kV=0.12 Vminpu=0.8 Vmaxpu=1.2 model=1 kva=0.82001 pf=1.0 Phases=1
New Load.load_p1rlv6284_2 conn=wye bus1=p1rlv6284.2 kV=0.12 Vminpu=0.8 Vmaxpu=1.2 model=1 kva=0.575005 pf=1.0 Phases=1
New Load.load_p1rlv6285_1 conn=wye bus1=p1rlv6285.1 kV=0.12 Vminpu=0.8 Vmaxpu=1.2 model=1 kva=0.81501 pf=1.0 Phases=1
New Load.load_p1rlv6285_2 conn=wye bus1=p1rlv6285.2 kV=0.12 Vminpu=0.8 Vmaxpu=1.2 model=1 kva=0.81501 pf=1.0 Phases=1
New Load.load_p1rlv6286_1 conn=wye bus1=p1rlv6286.1 kV=0.12 Vminpu=0.8 Vmaxpu=1.2 model=1 kva=0.89501 pf=1.0 Phases=1
New Load.load_p1rlv6286_2 conn=wye bus1=p1rlv6286.2 kV=0.12 Vminpu=0.8 Vmaxpu=1.2 model=1 kva=0.89501 pf=1.0 Phases=1
New Load.load_p1rlv6287_2 conn=wye bus1=p1rlv6287.2 kV=0.12 Vminpu=0.8 Vmaxpu=1.2 model=1 kva=1.03501 pf=1.0 Phases=1
New Load.load_p1rlv6288_1 conn=wye bus1=p1rlv6288.1 kV=0.12 Vminpu=0.8 Vmaxpu=1.2 model=1 kva=1.21001 pf=1.0 Phases=1
New Load.load_p1rlv6288_2 conn=wye bus1=p1rlv6288.2 kV=0.12 Vminpu=0.8 Vmaxpu=1.2 model=1 kva=1.21001 pf=1.0 Phases=1
New Load.load_p1rlv6289_1 conn=wye bus1=p1rlv6289.1 kV=0.12 Vminpu=0.8 Vmaxpu=1.2 model=1 kva=0.92001 pf=1.0 Phases=1
New Load.load_p1rlv6289_2 conn=wye bus1=p1rlv6289.2 kV=0.12 Vminpu=0.8 Vmaxpu=1.2 model=1 kva=0.92001 pf=1.0 Phases=1
New Load.load_p1rlv6290_1 conn=wye bus1=p1rlv6290.1 kV=0.12 Vminpu=0.8 Vmaxpu=1.2 model=1 kva=0.75501 pf=1.0 Phases=1
New Load.load_p1rlv6290_2 conn=wye bus1=p1rlv6290.2 kV=0.12 Vminpu=0.8 Vmaxpu=1.2 model=1 kva=0.75501 pf=1.0 Phases=1
New Load.load_p1rlv6291_1 conn=wye bus1=p1rlv6291.1 kV=0.12 Vminpu=0.8 Vmaxpu=1.2 model=1 kva=0.76001 pf=1.0 Phases=1
New Load.load_p1rlv6291_2 conn=wye bus1=p1rlv6291.2 kV=0.12 Vminpu=0.8 Vmaxpu=1.2 model=1 kva=0.76001 pf=1.0 Phases=1
New Load.load_p1rlv6292_1 conn=wye bus1=p1rlv6292.1 kV=0.12 Vminpu=0.8 Vmaxpu=1.2 model=1 kva=0.89501 pf=1.0 Phases=1
New Load.load_p1rlv6292_2 conn=wye bus1=p1rlv6292.2 kV=0.12 Vminpu=0.8 Vmaxpu=1.2 model=1 kva=0.89501 pf=1.0 Phases=1
New Load.load_p1rlv6293_1 conn=wye bus1=p1rlv6293.1 kV=0.12 Vminpu=0.8 Vmaxpu=1.2 model=1 kva=1.06501 pf=1.0 Phases=1
New Load.load_p1rlv6293_2 conn=wye bus1=p1rlv6293.2 kV=0.12 Vminpu=0.8 Vmaxpu=1.2 model=1 kva=1.06501 pf=1.0 Phases=1
New Load.load_p1rlv6294_1 conn=wye bus1=p1rlv6294.1 kV=0.12 Vminpu=0.8 Vmaxpu=1.2 model=1 kva=1.10001 pf=1.0 Phases=1
New Load.load_p1rlv6294_2 conn=wye bus1=p1rlv6294.2 kV=0.12 Vminpu=0.8 Vmaxpu=1.2 model=1 kva=1.10001 pf=1.0 Phases=1
New Load.load_p1rlv6295_1 conn=wye bus1=p1rlv6295.1 kV=0.12 Vminpu=0.8 Vmaxpu=1.2 model=1 kva=1.15501 pf=1.0 Phases=1
New Load.load_p1rlv6295_2 conn=wye bus1=p1rlv6295.2 kV=0.12 Vminpu=0.8 Vmaxpu=1.2 model=1 kva=1.15501 pf=1.0 Phases=1
New Load.load_p1rlv6296_1 conn=wye bus1=p1rlv6296.1 kV=0.12 Vminpu=0.8 Vmaxpu=1.2 model=1 kva=1.14001 pf=1.0 Phases=1
New Load.load_p1rlv6296_2 conn=wye bus1=p1rlv6296.2 kV=0.12 Vminpu=0.8 Vmaxpu=1.2 model=1 kva=1.14001 pf=1.0 Phases=1
New Load.load_p1rlv6297_1 conn=wye bus1=p1rlv6297.1 kV=0.12 Vminpu=0.8 Vmaxpu=1.2 model=1 kva=0.92501 pf=1.0 Phases=1
New Load.load_p1rlv6297_2 conn=wye bus1=p1rlv6297.2 kV=0.12 Vminpu=0.8 Vmaxpu=1.2 model=1 kva=0.92501 pf=1.0 Phases=1
New Load.load_p1rlv6298_1 conn=wye bus1=p1rlv6298.1 kV=0.12 Vminpu=0.8 Vmaxpu=1.2 model=1 kva=0.95501 pf=1.0 Phases=1
New Load.load_p1rlv6298_2 conn=wye bus1=p1rlv6298.2 kV=0.12 Vminpu=0.8 Vmaxpu=1.2 model=1 kva=0.95501 pf=1.0 Phases=1
New Load.load_p1rlv6299_1 conn=wye bus1=p1rlv6299.1 kV=0.12 Vminpu=0.8 Vmaxpu=1.2 model=1 kva=1.00001 pf=1.0 Phases=1
New Load.load_p1rlv6299_2 conn=wye bus1=p1rlv6299.2 kV=0.12 Vminpu=0.8 Vmaxpu=1.2 model=1 kva=1.00001 pf=1.0 Phases=1
New Load.load_p1rlv6300_1 conn=wye bus1=p1rlv6300.1 kV=0.12 Vminpu=0.8 Vmaxpu=1.2 model=1 kva=0.9850100000000002 pf=1.0 Phases=1
New Load.load_p1rlv6301_1 conn=wye bus1=p1rlv6301.1 kV=0.12 Vminpu=0.8 Vmaxpu=1.2 model=1 kva=1.19501 pf=1.0 Phases=1
New Load.load_p1rlv6301_2 conn=wye bus1=p1rlv6301.2 kV=0.12 Vminpu=0.8 Vmaxpu=1.2 model=1 kva=1.19501 pf=1.0 Phases=1
New Load.load_p1rlv6302_2 conn=wye bus1=p1rlv6302.2 kV=0.12 Vminpu=0.8 Vmaxpu=1.2 model=1 kva=0.3600035 pf=1.0 Phases=1
New Load.load_p1rlv6303_1 conn=wye bus1=p1rlv6303.1 kV=0.12 Vminpu=0.8 Vmaxpu=1.2 model=1 kva=0.670005 pf=1.0 Phases=1
New Load.load_p1rlv6305_1 conn=wye bus1=p1rlv6305.1 kV=0.12 Vminpu=0.8 Vmaxpu=1.2 model=1 kva=0.93501 pf=1.0 Phases=1
New Load.load_p1rlv6305_2 conn=wye bus1=p1rlv6305.2 kV=0.12 Vminpu=0.8 Vmaxpu=1.2 model=1 kva=0.93501 pf=1.0 Phases=1
New Load.load_p1rlv6306_1 conn=wye bus1=p1rlv6306.1 kV=0.12 Vminpu=0.8 Vmaxpu=1.2 model=1 kva=1.1750100000000003 pf=1.0 Phases=1
New Load.load_p1rlv6306_2 conn=wye bus1=p1rlv6306.2 kV=0.12 Vminpu=0.8 Vmaxpu=1.2 model=1 kva=1.1750100000000003 pf=1.0 Phases=1
New Load.load_p1rlv6307_1 conn=wye bus1=p1rlv6307.1 kV=0.12 Vminpu=0.8 Vmaxpu=1.2 model=1 kva=1.18001 pf=1.0 Phases=1
New Load.load_p1rlv6308_1 conn=wye bus1=p1rlv6308.1 kV=0.12 Vminpu=0.8 Vmaxpu=1.2 model=1 kva=0.83501 pf=1.0 Phases=1
New Load.load_p1rlv6308_2 conn=wye bus1=p1rlv6308.2 kV=0.12 Vminpu=0.8 Vmaxpu=1.2 model=1 kva=0.83501 pf=1.0 Phases=1
New Load.load_p1rlv6309_1 conn=wye bus1=p1rlv6309.1 kV=0.12 Vminpu=0.8 Vmaxpu=1.2 model=1 kva=1.4000150000000002 pf=1.0 Phases=1
New Load.load_p1rlv6310_1 conn=wye bus1=p1rlv6310.1 kV=0.12 Vminpu=0.8 Vmaxpu=1.2 model=1 kva=1.15001 pf=1.0 Phases=1
New Load.load_p1rlv6310_2 conn=wye bus1=p1rlv6310.2 kV=0.12 Vminpu=0.8 Vmaxpu=1.2 model=1 kva=1.15001 pf=1.0 Phases=1
New Load.load_p1rlv6311_2 conn=wye bus1=p1rlv6311.2 kV=0.12 Vminpu=0.8 Vmaxpu=1.2 model=1 kva=0.725005 pf=1.0 Phases=1
New Load.load_p1rlv6312_2 conn=wye bus1=p1rlv6312.2 kV=0.12 Vminpu=0.8 Vmaxpu=1.2 model=1 kva=0.97001 pf=1.0 Phases=1
New Load.load_p1rlv6314_1 conn=wye bus1=p1rlv6314.1 kV=0.12 Vminpu=0.8 Vmaxpu=1.2 model=1 kva=0.85501 pf=1.0 Phases=1
New Load.load_p1rlv6314_2 conn=wye bus1=p1rlv6314.2 kV=0.12 Vminpu=0.8 Vmaxpu=1.2 model=1 kva=0.85501 pf=1.0 Phases=1
New Load.load_p1rlv6315_2 conn=wye bus1=p1rlv6315.2 kV=0.12 Vminpu=0.8 Vmaxpu=1.2 model=1 kva=1.3900150000000002 pf=1.0 Phases=1
New Load.load_p1rlv6317_1 conn=wye bus1=p1rlv6317.1 kV=0.12 Vminpu=0.8 Vmaxpu=1.2 model=1 kva=0.630005 pf=1.0 Phases=1
New Load.load_p1rlv6317_2 conn=wye bus1=p1rlv6317.2 kV=0.12 Vminpu=0.8 Vmaxpu=1.2 model=1 kva=0.630005 pf=1.0 Phases=1
New Load.load_p1rlv6318_1 conn=wye bus1=p1rlv6318.1 kV=0.12 Vminpu=0.8 Vmaxpu=1.2 model=1 kva=0.685005 pf=1.0 Phases=1
New Load.load_p1rlv6319_1 conn=wye bus1=p1rlv6319.1 kV=0.12 Vminpu=0.8 Vmaxpu=1.2 model=1 kva=0.89001 pf=1.0 Phases=1
New Load.load_p1rlv6319_2 conn=wye bus1=p1rlv6319.2 kV=0.12 Vminpu=0.8 Vmaxpu=1.2 model=1 kva=0.89001 pf=1.0 Phases=1
New Load.load_p1rlv6320_1 conn=wye bus1=p1rlv6320.1 kV=0.12 Vminpu=0.8 Vmaxpu=1.2 model=1 kva=0.87501 pf=1.0 Phases=1
New Load.load_p1rlv6320_2 conn=wye bus1=p1rlv6320.2 kV=0.12 Vminpu=0.8 Vmaxpu=1.2 model=1 kva=0.87501 pf=1.0 Phases=1
New Load.load_p1rlv6321_1 conn=wye bus1=p1rlv6321.1 kV=0.12 Vminpu=0.8 Vmaxpu=1.2 model=1 kva=0.98001 pf=1.0 Phases=1
New Load.load_p1rlv6322_1 conn=wye bus1=p1rlv6322.1 kV=0.12 Vminpu=0.8 Vmaxpu=1.2 model=1 kva=0.85501 pf=1.0 Phases=1
New Load.load_p1rlv6322_2 conn=wye bus1=p1rlv6322.2 kV=0.12 Vminpu=0.8 Vmaxpu=1.2 model=1 kva=0.85501 pf=1.0 Phases=1
New Load.load_p1rlv6323_2 conn=wye bus1=p1rlv6323.2 kV=0.12 Vminpu=0.8 Vmaxpu=1.2 model=1 kva=0.685005 pf=1.0 Phases=1
New Load.load_p1rlv6324_1 conn=wye bus1=p1rlv6324.1 kV=0.12 Vminpu=0.8 Vmaxpu=1.2 model=1 kva=0.720005 pf=1.0 Phases=1
New Load.load_p1rlv6325_1 conn=wye bus1=p1rlv6325.1 kV=0.12 Vminpu=0.8 Vmaxpu=1.2 model=1 kva=0.745005 pf=1.0 Phases=1