New Load.motor_load_p1rlv4346_1 conn=wye bus1=p1rlv4346.1 kV=0.12 kW=1.1335918169688717 kvar=0.22671836339377435 Phases=1 Vminpu=0.0 Vmaxpu=1.2 model=1
New Load.motor_load_p1rlv4347_1 conn=wye bus1=p1rlv4347.1 kV=0.12 kW=1.2517121173467305 kvar=0.2503424234693461 Phases=1 Vminpu=0.0 Vmaxpu=1.2 model=1
New Load.motor_load_p1rlv4347_2 conn=wye bus1=p1rlv4347.2 kV=0.12 kW=1.106690087678265 kvar=0.22133801753565302 Phases=1 Vminpu=0.0 Vmaxpu=1.2 model=1
New Load.motor_load_p1rlv4348_1 conn=wye bus1=p1rlv4348.1 kV=0.12 kW=1.078654622464841 kvar=0.2157309244929682 Phases=1 Vminpu=0.0 Vmaxpu=1.2 model=1
New Load.motor_load_p1rlv4350_1 conn=wye bus1=p1rlv4350.1 kV=0.12 kW=1.1235180669945375 kvar=0.22470361339890751 Phases=1 Vminpu=0.0 Vmaxpu=1.2 model=1
New Load.motor_load_p1rlv4353_2 conn=wye bus1=p1rlv4353.2 kV=0.12 kW=1.2322833525232664 kvar=0.24645667050465328 Phases=1 Vminpu=0.0 Vmaxpu=1.2 model=1
New Load.motor_load_p1rlv4358_1 conn=wye bus1=p1rlv4358.1 kV=0.12 kW=1.138597794250698 kvar=0.22771955885013961 Phases=1 Vminpu=0.0 Vmaxpu=1.2 model=1
New Load.motor_load_p1rlv4614_2 conn=wye bus1=p1rlv4614.2 kV=0.12 kW=1.2373280364638441 kvar=0.24746560729276884 Phases=1 Vminpu=0.0 Vmaxpu=1.2 model=1
New Load.motor_load_p1rlv4615_2 conn=wye bus1=p1rlv4615.2 kV=0.12 kW=1.0918662769445824 kvar=0.2183732553889165 Phases=1 Vminpu=0.0 Vmaxpu=1.2 model=1
New Load.motor_load_p1rlv4617_1 conn=wye bus1=p1rlv4617.1 kV=0.12 kW=1.168937621946339 kvar=0.2337875243892678 Phases=1 Vminpu=0.0 Vmaxpu=1.2 model=1
New Load.motor_load_p1rlv4618_2 conn=wye bus1=p1rlv4618.2 kV=0.12 kW=1.1668967421237455 kvar=0.2333793484247491 Phases=1 Vminpu=0.0 Vmaxpu=1.2 model=1
New Load.motor_load_p1rlv4623_1 conn=wye bus1=p1rlv4623.1 kV=0.12 kW=1.210697850861118 kvar=0.2421395701722236 Phases=1 Vminpu=0.0 Vmaxpu=1.2 model=1
New Load.motor_load_p1rlv4625_1 conn=wye bus1=p1rlv4625.1 kV=0.12 kW=1.0901670116992561 kvar=0.21803340233985125 Phases=1 Vminpu=0.0 Vmaxpu=1.2 model=1
New Load.motor_load_p1rlv4629_1 conn=wye bus1=p1rlv4629.1 kV=0.12 kW=1.2221801367091765 kvar=0.2444360273418353 Phases=1 Vminpu=0.0 Vmaxpu=1.2 model=1
New Load.motor_load_p1rlv4630_1 conn=wye bus1=p1rlv4630.1 kV=0.12 kW=1.2594207422690464 kvar=0.2518841484538093 Phases=1 Vminpu=0.0 Vmaxpu=1.2 model=1
New Load.motor_load_p1rlv4632_1 conn=wye bus1=p1rlv4632.1 kV=0.12 kW=1.0941872634361602 kvar=0.21883745268723206 Phases=1 Vminpu=0.0 Vmaxpu=1.2 model=1
New Load.motor_load_p1rlv4633_1 conn=wye bus1=p1rlv4633.1 kV=0.12 kW=1.065398895071687 kvar=0.21307977901433742 Phases=1 Vminpu=0.0 Vmaxpu=1.2 model=1
New Load.motor_load_p1rlv4634_1 conn=wye bus1=p1rlv4634.1 kV=0.12 kW=1.0924797352405113 kvar=0.21849594704810227 Phases=1 Vminpu=0.0 Vmaxpu=1.2 model=1
New Load.motor_load_p1rlv4635_1 conn=wye bus1=p1rlv4635.1 kV=0.12 kW=1.1999300697084367 kvar=0.23998601394168737 Phases=1 Vminpu=0.0 Vmaxpu=1.2 model=1
New Load.motor_load_p1rlv4635_2 conn=wye bus1=p1rlv4635.2 kV=0.12 kW=1.0777967581245456 kvar=0.21555935162490913 Phases=1 Vminpu=0.0 Vmaxpu=1.2 model=1
New Load.motor_load_p1rlv4636_1 conn=wye bus1=p1rlv4636.1 kV=0.12 kW=1.2255824406642535 kvar=0.2451164881328507 Phases=1 Vminpu=0.0 Vmaxpu=1.2 model=1
New Load.motor_load_p1rlv4636_2 conn=wye bus1=p1rlv4636.2 kV=0.12 kW=1.1447513563141363 kvar=0.22895027126282727 Phases=1 Vminpu=0.0 Vmaxpu=1.2 model=1
New Load.motor_load_p1rlv4637_2 conn=wye bus1=p1rlv4637.2 kV=0.12 kW=1.061219301271658 kvar=0.21224386025433162 Phases=1 Vminpu=0.0 Vmaxpu=1.2 model=1
New Load.motor_load_p1rlv4639_2 conn=wye bus1=p1rlv4639.2 kV=0.12 kW=1.2035867385181906 kvar=0.24071734770363815 Phases=1 Vminpu=0.0 Vmaxpu=1.2 model=1
New Load.motor_load_p1rlv4642_1 conn=wye bus1=p1rlv4642.1 kV=0.12 kW=1.26029452373177 kvar=0.252058904746354 Phases=1 Vminpu=0.0 Vmaxpu=1.2 model=1
New Load.motor_load_p1rlv4643_1 conn=wye bus1=p1rlv4643.1 kV=0.12 kW=1.1976903557367728 kvar=0.2395380711473546 Phases=1 Vminpu=0.0 Vmaxpu=1.2 model=1
New Load.motor_load_p1rlv4643_2 conn=wye bus1=p1rlv4643.2 kV=0.12 kW=1.070870167259382 kvar=0.21417403345187644 Phases=1 Vminpu=0.0 Vmaxpu=1.2 model=1
New Load.motor_load_p1rlv4644_1 conn=wye bus1=p1rlv4644.1 kV=0.12 kW=1.2494066713665801 kvar=0.24988133427331605 Phases=1 Vminpu=0.0 Vmaxpu=1.2 model=1
New Load.motor_load_p1rlv4645_2 conn=wye bus1=p1rlv4645.2 kV=0.12 kW=1.1592665315924926 kvar=0.23185330631849854 Phases=1 Vminpu=0.0 Vmaxpu=1.2 model=1
New Load.motor_load_p1rlv4646_2 conn=wye bus1=p1rlv4646.2 kV=0.12 kW=1.0538144555627007 kvar=0.21076289111254015 Phases=1 Vminpu=0.0 Vmaxpu=1.2 model=1
New Load.motor_load_p1rlv4647_1 conn=wye bus1=p1rlv4647.1 kV=0.12 kW=1.0561305106437084 kvar=0.2112261021287417 Phases=1 Vminpu=0.0 Vmaxpu=1.2 model=1
New Load.motor_load_p1rlv4649_2 conn=wye bus1=p1rlv4649.2 kV=0.12 kW=1.1227860314446252 kvar=0.22455720628892506 Phases=1 Vminpu=0.0 Vmaxpu=1.2 model=1
New Load.motor_load_p1rlv4650_1 conn=wye bus1=p1rlv4650.1 kV=0.12 kW=1.087972018073309 kvar=0.2175944036146618 Phases=1 Vminpu=0.0 Vmaxpu=1.2 model=1
New Load.motor_load_p1rlv4652_2 conn=wye bus1=p1rlv4652.2 kV=0.12 kW=1.1663076288400087 kvar=0.23326152576800174 Phases=1 Vminpu=0.0 Vmaxpu=1.2 model=1
New Load.motor_load_p1rlv4656_2 conn=wye bus1=p1rlv4656.2 kV=0.12 kW=1.13011702800138 kvar=0.226023405600276 Phases=1 Vminpu=0.0 Vmaxpu=1.2 model=1
New Load.motor_load_p1rlv4659_2 conn=wye bus1=p1rlv4659.2 kV=0.12 kW=1.0838930528622128 kvar=0.21677861057244258 Phases=1 Vminpu=0.0 Vmaxpu=1.2 model=1
New Load.motor_load_p1rlv4660_2 conn=wye bus1=p1rlv4660.2 kV=0.12 kW=1.1313946148099752 kvar=0.22627892296199503 Phases=1 Vminpu=0.0 Vmaxpu=1.2 model=1
New Load.motor_load_p1rlv4663_1 conn=wye bus1=p1rlv4663.1 kV=0.12 kW=1.1596968488776787 kvar=0.23193936977553575 Phases=1 Vminpu=0.0 Vmaxpu=1.2 model=1
New Load.motor_load_p1rlv4664_1 conn=wye bus1=p1rlv4664.1 kV=0.12 kW=1.195185355733096 kvar=0.2390370711466192 Phases=1 Vminpu=0.0 Vmaxpu=1.2 model=1
New Load.motor_load_p1rlv4666_1 conn=wye bus1=p1rlv4666.1 kV=0.12 kW=1.0562145122936069 kvar=0.21124290245872138 Phases=1 Vminpu=0.0 Vmaxpu=1.2 model=1
New Load.motor_load_p1rlv4666_2 conn=wye bus1=p1rlv4666.2 kV=0.12 kW=1.1435467853574097 kvar=0.22870935707148196 Phases=1 Vminpu=0.0 Vmaxpu=1.2 model=1
New Load.motor_load_p1rlv4668_2 conn=wye bus1=p1rlv4668.2 kV=0.12 kW=1.2398342343206148 kvar=0.24796684686412296 Phases=1 Vminpu=0.0 Vmaxpu=1.2 model=1
New Load.motor_load_p1rlv4669_1 conn=wye bus1=p1rlv4669.1 kV=0.12 kW=1.1548984911665567 kvar=0.23097969823331135 Phases=1 Vminpu=0.0 Vmaxpu=1.2 model=1
New Load.motor_load_p1rlv4671_2 conn=wye bus1=p1rlv4671.2 kV=0.12 kW=1.1852375793306507 kvar=0.23704751586613015 Phases=1 Vminpu=0.0 Vmaxpu=1.2 model=1
New Load.motor_load_p1rlv4673_2 conn=wye bus1=p1rlv4673.2 kV=0.12 kW=1.1927089377414724 kvar=0.23854178754829447 Phases=1 Vminpu=0.0 Vmaxpu=1.2 model=1
New Load.motor_load_p1rlv4674_1 conn=wye bus1=p1rlv4674.1 kV=0.12 kW=1.2288060285363667 kvar=0.24576120570727333 Phases=1 Vminpu=0.0 Vmaxpu=1.2 model=1
New Load.motor_load_p1rlv4676_2 conn=wye bus1=p1rlv4676.2 kV=0.12 kW=1.1324544014087836 kvar=0.22649088028175673 Phases=1 Vminpu=0.0 Vmaxpu=1.2 model=1
New Load.motor_load_p1rlv4677_2 conn=wye bus1=p1rlv4677.2 kV=0.12 kW=1.0816273044086475 kvar=0.21632546088172952 Phases=1 Vminpu=0.0 Vmaxpu=1.2 model=1
New Load.motor_load_p1rlv4679_2 conn=wye bus1=p1rlv4679.2 kV=0.12 kW=1.137800385673314 kvar=0.22756007713466284 Phases=1 Vminpu=0.0 Vmaxpu=1.2 model=1
New Load.motor_load_p1rlv4686_2 conn=wye bus1=p1rlv4686.2 kV=0.12 kW=1.1986823388264078 kvar=0.23973646776528157 Phases=1 Vminpu=0.0 Vmaxpu=1.2 model=1
New Load.motor_load_p1rlv4816_1 conn=wye bus1=p1rlv4816.1 kV=0.12 kW=1.1968863325206385 kvar=0.23937726650412772 Phases=1 Vminpu=0.0 Vmaxpu=1.2 model=1
New Load.motor_load_p1rlv4817_2 conn=wye bus1=p1rlv4817.2 kV=0.12 kW=1.1001898421671248 kvar=0.22003796843342496 Phases=1 Vminpu=0.0 Vmaxpu=1.2 model=1
New Load.motor_load_p1rlv4818 conn=wye bus1=p1rlv4818.1.2.3 kV=0.48 kW=1.0835330263489256 kvar=0.21670660526978514 Phases=3 Vminpu=0.0 Vmaxpu=1.2 model=1
New Load.motor_load_p1rlv4820_2 conn=wye bus1=p1rlv4820.2 kV=0.12 kW=1.232188649625068 kvar=0.24643772992501362 Phases=1 Vminpu=0.0 Vmaxpu=1.2 model=1
New Load.motor_load_p1rlv4822_1 conn=wye bus1=p1rlv4822.1 kV=0.12 kW=1.1627780870265152 kvar=0.23255561740530306 Phases=1 Vminpu=0.0 Vmaxpu=1.2 model=1
New Load.motor_load_p1rlv4825_2 conn=wye bus1=p1rlv4825.2 kV=0.12 kW=1.221290544945867 kvar=0.24425810898917344 Phases=1 Vminpu=0.0 Vmaxpu=1.2 model=1
New Load.motor_load_p1rlv4826_2 conn=wye bus1=p1rlv4826.2 kV=0.12 kW=1.1959112390434725 kvar=0.23918224780869451 Phases=1 Vminpu=0.0 Vmaxpu=1.2 model=1
New Load.motor_load_p1rlv5994_2 conn=wye bus1=p1rlv5994.2 kV=0.12 kW=1.1689233486926582 kvar=0.23378466973853165 Phases=1 Vminpu=0.0 Vmaxpu=1.2 model=1
New Load.motor_load_p1rlv5995_2 conn=wye bus1=p1rlv5995.2 kV=0.12 kW=1.063602929678624 kvar=0.21272058593572482 Phases=1 Vminpu=0.0 Vmaxpu=1.2 model=1
New Load.motor_load_p1rlv6000_1 conn=wye bus1=p1rlv6000.1 kV=0.12 kW=1.1631778807925883 kvar=0.23263557615851768 Phases=1 Vminpu=0.0 Vmaxpu=1.2 model=1
New Load.motor_load_p1rlv6000_2 conn=wye bus1=p1rlv6000.2 kV=0.12 kW=1.1691186153850197 kvar=0.23382372307700394 Phases=1 Vminpu=0.0 Vmaxpu=1.2 model=1
New Load.motor_load_p1rlv6002_1 conn=wye bus1=p1rlv6002.1 kV=0.12 kW=1.2478981201684434 kvar=0.2495796240336887 Phases=1 Vminpu=0.0 Vmaxpu=1.2 model=1
New Load.motor_load_p1rlv6003_1 conn=wye bus1=p1rlv6003.1 kV=0.12 kW=1.1677412830389224 kvar=0.2335482566077845 Phases=1 Vminpu=0.0 Vmaxpu=1.2 model=1
New Load.motor_load_p1rlv6003_2 conn=wye bus1=p1rlv6003.2 kV=0.12 kW=1.159149400501279 kvar=0.23182988010025582 Phases=1 Vminpu=0.0 Vmaxpu=1.2 model=1
New Load.motor_load_p1rlv6004_2 conn=wye bus1=p1rlv6004.2 kV=0.12 kW=1.1651397265150782 kvar=0.23302794530301565 Phases=1 Vminpu=0.0 Vmaxpu=1.2 model=1
New Load.motor_load_p1rlv6005_1 conn=wye bus1=p1rlv6005.1 kV=0.12 kW=1.1864189449709246 kvar=0.23728378899418492 Phases=1 Vminpu=0.0 Vmaxpu=1.2 model=1
New Load.motor_load_p1rlv6005_2 conn=wye bus1=p1rlv6005.2 kV=0.12 kW=1.1034931562782664 kvar=0.22069863125565328 Phases=1 Vminpu=0.0 Vmaxpu=1.2 model=1
New Load.motor_load_p1rlv6006_2 conn=wye bus1=p1rlv6006.2 kV=0.12 kW=1.1184656094917282 kvar=0.22369312189834567 Phases=1 Vminpu=0.0 Vmaxpu=1.2 model=1
New Load.motor_load_p1rlv6011_2 conn=wye bus1=p1rlv6011.2 kV=0.12 kW=1.2596133729869876 kvar=0.25192267459739753 Phases=1 Vminpu=0.0 Vmaxpu=1.2 model=1
New Load.motor_load_p1rlv6266_1 conn=wye bus1=p1rlv6266.1 kV=0.12 kW=1.1135543898335938 kvar=0.22271087796671876 Phases=1 Vminpu=0.0 Vmaxpu=1.2 model=1
New Load.motor_load_p1rlv6267_1 conn=wye bus1=p1rlv6267.1 kV=0.12 kW=1.1243211837854596 kvar=0.22486423675709194 Phases=1 Vminpu=0.0 Vmaxpu=1.2 model=1
New Load.motor_load_p1rlv6270_1 conn=wye bus1=p1rlv6270.1 kV=0.12 kW=1.1694359012263462 kvar=0.23388718024526925 Phases=1 Vminpu=0.0 Vmaxpu=1.2 model=1
New Load.motor_load_p1rlv6271_2 conn=wye bus1=p1rlv6271.2 kV=0.12 kW=1.2081141683363121 kvar=0.24162283366726245 Phases=1 Vminpu=0.0 Vmaxpu=1.2 model=1
New Load.motor_load_p1rlv6273_2 conn=wye bus1=p1rlv6273.2 kV=0.12 kW=1.059628377456762 kvar=0.21192567549135244 Phases=1 Vminpu=0.0 Vmaxpu=1.2 model=1
New Load.motor_load_p1rlv6274_1 conn=wye bus1=p1rlv6274.1 kV=0.12 kW=1.1131140741929217 kvar=0.22262281483858437 Phases=1 Vminpu=0.0 Vmaxpu=1.2 model=1
New Load.motor_load_p1rlv6277_1 conn=wye bus1=p1rlv6277.1 kV=0.12 kW=1.1641500333723551 kvar=0.23283000667447104 Phases=1 Vminpu=0.0 Vmaxpu=1.2 model=1
New Load.motor_load_p1rlv6278_1 conn=wye bus1=p1rlv6278.1 kV=0.12 kW=1.162461293701054 kvar=0.23249225874021084 Phases=1 Vminpu=0.0 Vmaxpu=1.2 model=1
New Load.motor_load_p1rlv6278_2 conn=wye bus1=p1rlv6278.2 kV=0.12 kW=1.2454584834284528 kvar=0.24909169668569056 Phases=1 Vminpu=0.0 Vmaxpu=1.2 model=1
New Load.motor_load_p1rlv6279_1 conn=wye bus1=p1rlv6279.1 kV=0.12 kW=1.1076875754994397 kvar=0.22153751509988795 Phases=1 Vminpu=0.0 Vmaxpu=1.2 model=1
New Load.motor_load_p1rlv6283_1 conn=wye bus1=p1rlv6283.1 kV=0.12 kW=1.1177140293019046 kvar=0.22354280586038092 Phases=1 Vminpu=0.0 Vmaxpu=1.2 model=1
New Load.motor_load_p1rlv6284_1 conn=wye bus1=p1rlv6284.1 kV=0.12 kW=1.136990001578227 kvar=0.22739800031564542 Phases=1 Vminpu=0.0 Vmaxpu=1.2 model=1
New Load.motor_load_p1rlv6287_1 conn=wye bus1=p1rlv6287.1 kV=0.12 kW=1.2329497073706603 kvar=0.24658994147413207 Phases=1 Vminpu=0.0 Vmaxpu=1.2 model=1
New Load.motor_load_p1rlv6300_2 conn=wye bus1=p1rlv6300.2 kV=0.12 kW=1.2583074806314678 kvar=0.25166149612629357 Phases=1 Vminpu=0.0 Vmaxpu=1.2 model=1
New Load.motor_load_p1rlv6302_1 conn=wye bus1=p1rlv6302.1 kV=0.12 kW=1.22484451755835 kvar=0.24496890351167 Phases=1 Vminpu=0.0 Vmaxpu=1.2 model=1
New Load.motor_load_p1rlv6303_2 conn=wye bus1=p1rlv6303.2 kV=0.12 kW=1.1654057601825516 kvar=0.23308115203651034 Phases=1 Vminpu=0.0 Vmaxpu=1.2 model=1
New Load.motor_load_p1rlv6304_1 conn=wye bus1=p1rlv6304.1 kV=0.12 kW=1.2570040658450723 kvar=0.25140081316901447 Phases=1 Vminpu=0.0 Vmaxpu=1.2 model=1
New Load.motor_load_p1rlv6304_2 conn=wye bus1=p1rlv6304.2 kV=0.12 kW=1.1987659979438372 kvar=0.23975319958876745 Phases=1 Vminpu=0.0 Vmaxpu=1.2 model=1
New Load.motor_load_p1rlv6307_2 conn=wye bus1=p1rlv6307.2 kV=0.12 kW=1.140004748535807 kvar=0.2280009497071614 Phases=1 Vminpu=0.0 Vmaxpu=1.2 model=1
New Load.motor_load_p1rlv6309_2 conn=wye bus1=p1rlv6309.2 kV=0.12 kW=1.1662983497870396 kvar=0.23325966995740793 Phases=1 Vminpu=0.0 Vmaxpu=1.2 model=1
New Load.motor_load_p1rlv6311_1 conn=wye bus1=p1rlv6311.1 kV=0.12 kW=1.1314247883154243 kvar=0.22628495766308487 Phases=1 Vminpu=0.0 Vmaxpu=1.2 model=1
New Load.motor_load_p1rlv6312_1 conn=wye bus1=p1rlv6312.1 kV=0.12 kW=1.0777183918671567 kvar=0.21554367837343136 Phases=1 Vminpu=0.0 Vmaxpu=1.2 model=1
New Load.motor_load_p1rlv6313_1 conn=wye bus1=p1rlv6313.1 kV=0.12 kW=1.1459127465028485 kvar=0.2291825493005697 Phases=1 Vminpu=0.0 Vmaxpu=1.2 model=1
New Load.motor_load_p1rlv6313_2 conn=wye bus1=p1rlv6313.2 kV=0.12 kW=1.1367191808412167 kvar=0.22734383616824336 Phases=1 Vminpu=0.0 Vmaxpu=1.2 model=1
New Load.motor_load_p1rlv6315_1 conn=wye bus1=p1rlv6315.1 kV=0.12 kW=1.0940398998384533 kvar=0.21880797996769066 Phases=1 Vminpu=0.0 Vmaxpu=1.2 model=1
New Load.motor_load_p1rlv6316_1 conn=wye bus1=p1rlv6316.1 kV=0.12 kW=1.1069758676442918 kvar=0.22139517352885837 Phases=1 Vminpu=0.0 Vmaxpu=1.2 model=1
New Load.motor_load_p1rlv6316_2 conn=wye bus1=p1rlv6316.2 kV=0.12 kW=1.071561764914852 kvar=0.21431235298297044 Phases=1 Vminpu=0.0 Vmaxpu=1.2 model=1
New Load.motor_load_p1rlv6318_2 conn=wye bus1=p1rlv6318.2 kV=0.12 kW=1.1815277988155368 kvar=0.23630555976310738 Phases=1 Vminpu=0.0 Vmaxpu=1.2 model=1
New Load.motor_load_p1rlv6321_2 conn=wye bus1=p1rlv6321.2 kV=0.12 kW=1.1401320827426225 kvar=0.2280264165485245 Phases=1 Vminpu=0.0 Vmaxpu=1.2 model=1
New Load.motor_load_p1rlv6323_1 conn=wye bus1=p1rlv6323.1 kV=0.12 kW=1.1442311241014695 kvar=0.22884622482029393 Phases=1 Vminpu=0.0 Vmaxpu=1.2 model=1
New Load.motor_load_p1rlv6324_2 conn=wye bus1=p1rlv6324.2 kV=0.12 kW=1.136973566305967 kvar=0.22739471326119343 Phases=1 Vminpu=0.0 Vmaxpu=1.2 model=1
New Load.motor_load_p1rlv6325_2 conn=wye bus1=p1rlv6325.2 kV=0.12 kW=1.1900005685677835 kvar=0.2380001137135567 Phases=1 Vminpu=0.0 Vmaxpu=1.2 model=1
New Load.motor_load_p1rlv6328_2 conn=wye bus1=p1rlv6328.2 kV=0.12 kW=1.2569633898712462 kvar=0.25139267797424925 Phases=1 Vminpu=0.0 Vmaxpu=1.2 model=1
New Load.motor_load_p1rlv6330_1 conn=wye bus1=p1rlv6330.1 kV=0.12 kW=1.221587283884829 kvar=0.2443174567769658 Phases=1 Vminpu=0.0 Vmaxpu=1.2 model=1
New Load.motor_load_p1rlv6330_2 conn=wye bus1=p1rlv6330.2 kV=0.12 kW=1.1403735394942913 kvar=0.22807470789885828 Phases=1 Vminpu=0.0 Vmaxpu=1.2 model=1
New Load.motor_load_p1rlv6332_2 conn=wye bus1=p1rlv6332.2 kV=0.12 kW=1.1631490330335905 kvar=0.23262980660671811 Phases=1 Vminpu=0.0 Vmaxpu=1.2 model=1
New Load.motor_load_p1rlv6336_2 conn=wye bus1=p1rlv6336.2 kV=0.12 kW=1.1730879312289453 kvar=0.23461758624578907 Phases=1 Vminpu=0.0 Vmaxpu=1.2 model=1
New Load.motor_load_p1rlv6338_2 conn=wye bus1=p1rlv6338.2 kV=0.12 kW=1.2472777808546693 kvar=0.24945555617093387 Phases=1 Vminpu=0.0 Vmaxpu=1.2 model=1
New Load.motor_load_p1rlv6339_1 conn=wye bus1=p1rlv6339.1 kV=0.12 kW=1.1086790746315383 kvar=0.22173581492630767 Phases=1 Vminpu=0.0 Vmaxpu=1.2 model=1
New Load.motor_load_p1rlv6339_2 conn=wye bus1=p1rlv6339.2 kV=0.12 kW=1.0790958402647606 kvar=0.21581916805295212 Phases=1 Vminpu=0.0 Vmaxpu=1.2 model=1
New Load.motor_load_p1rlv6340_1 conn=wye bus1=p1rlv6340.1 kV=0.12 kW=1.132107285080138 kvar=0.2264214570160276 Phases=1 Vminpu=0.0 Vmaxpu=1.2 model=1
New Load.motor_load_p1rlv6341_2 conn=wye bus1=p1rlv6341.2 kV=0.12 kW=1.0800823179695656 kvar=0.21601646359391313 Phases=1 Vminpu=0.0 Vmaxpu=1.2 model=1
New Load.motor_load_p1rlv6344_1 conn=wye bus1=p1rlv6344.1 kV=0.12 kW=1.0997680686480915 kvar=0.2199536137296183 Phases=1 Vminpu=0.0 Vmaxpu=1.2 model=1
New Load.motor_load_p1rlv6346_1 conn=wye bus1=p1rlv6346.1 kV=0.12 kW=1.0818169637221018 kvar=0.21636339274442037 Phases=1 Vminpu=0.0 Vmaxpu=1.2 model=1
New Load.motor_load_p1rlv6347_1 conn=wye bus1=p1rlv6347.1 kV=0.12 kW=1.2491917722018955 kvar=0.2498383544403791 Phases=1 Vminpu=0.0 Vmaxpu=1.2 model=1
New Load.motor_load_p1rlv6348_2 conn=wye bus1=p1rlv6348.2 kV=0.12 kW=1.2423917583104693 kvar=0.24847835166209387 Phases=1 Vminpu=0.0 Vmaxpu=1.2 model=1
New Load.motor_load_p1rlv6349_2 conn=wye bus1=p1rlv6349.2 kV=0.12 kW=1.175241502182683 kvar=0.2350483004365366 Phases=1 Vminpu=0.0 Vmaxpu=1.2 model=1
New Load.motor_load_p1rlv6350_1 conn=wye bus1=p1rlv6350.1 kV=0.12 kW=1.1374883913522407 kvar=0.22749767827044814 Phases=1 Vminpu=0.0 Vmaxpu=1.2 model=1
New Load.motor_load_p1rlv6351_1 conn=wye bus1=p1rlv6351.1 kV=0.12 kW=1.1948421352967675 kvar=0.2389684270593535 Phases=1 Vminpu=0.0 Vmaxpu=1.2 model=1
New Load.motor_load_p1rlv6355_2 conn=wye bus1=p1rlv6355.2 kV=0.12 kW=1.167855641609963 kvar=0.23357112832199262 Phases=1 Vminpu=0.0 Vmaxpu=1.2 model=1
New Load.motor_load_p1rlv6356_1 conn=wye bus1=p1rlv6356.1 kV=0.12 kW=1.251631812775193 kvar=0.25032636255503865 Phases=1 Vminpu=0.0 Vmaxpu=1.2 model=1
New Load.motor_load_p1rlv6362_2 conn=wye bus1=p1rlv6362.2 kV=0.12 kW=1.2346977933634387 kvar=0.24693955867268774 Phases=1 Vminpu=0.0 Vmaxpu=1.2 model=1
New Load.motor_load_p1rlv6363_1 conn=wye bus1=p1rlv6363.1 kV=0.12 kW=1.245340919463039 kvar=0.2490681838926078 Phases=1 Vminpu=0.0 Vmaxpu=1.2 model=1
New Load.motor_load_p1rlv6365_1 conn=wye bus1=p1rlv6365.1 kV=0.12 kW=1.252743838347886 kvar=0.2505487676695772 Phases=1 Vminpu=0.0 Vmaxpu=1.2 model=1
New Load.motor_load_p1rlv6365_2 conn=wye bus1=p1rlv6365.2 kV=0.12 kW=1.1115089282752035 kvar=0.22230178565504072 Phases=1 Vminpu=0.0 Vmaxpu=1.2 model=1
New Load.motor_load_p1rlv6367_1 conn=wye bus1=p1rlv6367.1 kV=0.12 kW=1.219498985044554 kvar=0.2438997970089108 Phases=1 Vminpu=0.0 Vmaxpu=1.2 model=1
New Load.motor_load_p1rlv6367_2 conn=wye bus1=p1rlv6367.2 kV=0.12 kW=1.1112572944134962 kvar=0.22225145888269926 Phases=1 Vminpu=0.0 Vmaxpu=1.2 model=1
New Load.motor_load_p1rlv6710_1 conn=wye bus1=p1rlv6710.1 kV=0.12 kW=1.1910227572834182 kvar=0.23820455145668365 Phases=1 Vminpu=0.0 Vmaxpu=1.2 model=1
New Load.motor_load_p1rlv6711_1 conn=wye bus1=p1rlv6711.1 kV=0.12 kW=1.2297355162185735 kvar=0.24594710324371472 Phases=1 Vminpu=0.0 Vmaxpu=1.2 model=1
New Load.motor_load_p1rlv6714_2 conn=wye bus1=p1rlv6714.2 kV=0.12 kW=1.1451932009540606 kvar=0.22903864019081213 Phases=1 Vminpu=0.0 Vmaxpu=1.2 model=1
New Load.motor_load_p1rlv6716_1 conn=wye bus1=p1rlv6716.1 kV=0.12 kW=1.1109306223103719 kvar=0.2221861244620744 Phases=1 Vminpu=0.0 Vmaxpu=1.2 model=1
New Load.motor_load_p1rlv6717_2 conn=wye bus1=p1rlv6717.2 kV=0.12 kW=1.1434317658363127 kvar=0.22868635316726255 Phases=1 Vminpu=0.0 Vmaxpu=1.2 model=1
New Load.motor_load_p1rlv6718_2 conn=wye bus1=p1rlv6718.2 kV=0.12 kW=1.1608458160641393 kvar=0.23216916321282788 Phases=1 Vminpu=0.0 Vmaxpu=1.2 model=1
New Load.motor_load_p1rlv6722_2 conn=wye bus1=p1rlv6722.2 kV=0.12 kW=1.071715451880037 kvar=0.2143430903760074 Phases=1 Vminpu=0.0 Vmaxpu=1.2 model=1
New Load.motor_load_p1rlv6725_1 conn=wye bus1=p1rlv6725.1 kV=0.12 kW=1.1894448895959444 kvar=0.2378889779191889 Phases=1 Vminpu=0.0 Vmaxpu=1.2 model=1
New Load.motor_load_p1rlv6728_2 conn=wye bus1=p1rlv6728.2 kV=0.12 kW=1.15911157263815 kvar=0.23182231452763002 Phases=1 Vminpu=0.0 Vmaxpu=1.2 model=1
New Load.motor_load_p1rlv6729_2 conn=wye bus1=p1rlv6729.2 kV=0.12 kW=1.1898114271095872 kvar=0.23796228542191744 Phases=1 Vminpu=0.0 Vmaxpu=1.2 model=1
New Load.motor_load_p1rlv6731_1 conn=wye bus1=p1rlv6731.1 kV=0.12 kW=1.241566505216657 kvar=0.24831330104333138 Phases=1 Vminpu=0.0 Vmaxpu=1.2 model=1
New Load.motor_load_p1rlv6731_2 conn=wye bus1=p1rlv6731.2 kV=0.12 kW=1.136092382046929 kvar=0.22721847640938583 Phases=1 Vminpu=0.0 Vmaxpu=1.2 model=1
New Load.motor_load_p1rlv6732_1 conn=wye bus1=p1rlv6732.1 kV=0.12 kW=1.1600733975046738 kvar=0.23201467950093477 Phases=1 Vminpu=0.0 Vmaxpu=1.2 model=1
New Load.motor_load_p1rlv6734_1 conn=wye bus1=p1rlv6734.1 kV=0.12 kW=1.22184661664361 kvar=0.244369323328722 Phases=1 Vminpu=0.0 Vmaxpu=1.2 model=1
New Load.motor_load_p1rlv6734_2 conn=wye bus1=p1rlv6734.2 kV=0.12 kW=1.0630332428570008 kvar=0.2126066485714002 Phases=1 Vminpu=0.0 Vmaxpu=1.2 model=1
New Load.motor_load_p1rlv6738_1 conn=wye bus1=p1rlv6738.1 kV=0.12 kW=1.1622903237984628 kvar=0.23245806475969255 Phases=1 Vminpu=0.0 Vmaxpu=1.2 model=1
New Load.motor_load_p1rlv6743_2 conn=wye bus1=p1rlv6743.2 kV=0.12 kW=1.200986406467979 kvar=0.2401972812935958 Phases=1 Vminpu=0.0 Vmaxpu=1.2 model=1
New Load.motor_load_p1rlv6746_1 conn=wye bus1=p1rlv6746.1 kV=0.12 kW=1.1427591049719121 kvar=0.22855182099438243 Phases=1 Vminpu=0.0 Vmaxpu=1.2 model=1
New Load.motor_load_p1rlv6746_2 conn=wye bus1=p1rlv6746.2 kV=0.12 kW=1.2036235503535988 kvar=0.24072471007071977 Phases=1 Vminpu=0.0 Vmaxpu=1.2 model=1
New Load.motor_load_p1rlv6747_1 conn=wye bus1=p1rlv6747.1 kV=0.12 kW=1.2303598847006374 kvar=0.2460719769401275 Phases=1 Vminpu=0.0 Vmaxpu=1.2 model=1
New Load.motor_load_p1rlv6748_2 conn=wye bus1=p1rlv6748.2 kV=0.12 kW=1.1778138418828088 kvar=0.23556276837656176 Phases=1 Vminpu=0.0 Vmaxpu=1.2 model=1
New Load.motor_load_p1rlv6752_1 conn=wye bus1=p1rlv6752.1 kV=0.12 kW=1.2554533636467522 kvar=0.25109067272935043 Phases=1 Vminpu=0.0 Vmaxpu=1.2 model=1
New Load.motor_load_p1rlv6753_1 conn=wye bus1=p1rlv6753.1 kV=0.12 kW=1.2056161564422347 kvar=0.24112323128844695 Phases=1 Vminpu=0.0 Vmaxpu=1.2 model=1
New Load.motor_load_p1rlv6753_2 conn=wye bus1=p1rlv6753.2 kV=0.12 kW=1.119659729099361 kvar=0.22393194581987222 Phases=1 Vminpu=0.0 Vmaxpu=1.2 model=1
New Load.motor_load_p1rlv6754_1 conn=wye bus1=p1rlv6754.1 kV=0.12 kW=1.0793866689341516 kvar=0.21587733378683033 Phases=1 Vminpu=0.0 Vmaxpu=1.2 model=1
New Load.motor_load_p1rlv6756_1 conn=wye bus1=p1rlv6756.1 kV=0.12 kW=1.2028777526348269 kvar=0.2405755505269654 Phases=1 Vminpu=0.0 Vmaxpu=1.2 model=1
New Load.motor_load_p1rlv6756_2 conn=wye bus1=p1rlv6756.2 kV=0.12 kW=1.2425290929249904 kvar=0.2485058185849981 Phases=1 Vminpu=0.0 Vmaxpu=1.2 model=1
New Load.motor_load_p1rlv6757_1 conn=wye bus1=p1rlv6757.1 kV=0.12 kW=1.1794302442845592 kvar=0.23588604885691186 Phases=1 Vminpu=0.0 Vmaxpu=1.2 model=1
New Load.motor_load_p1rlv6758_1 conn=wye bus1=p1rlv6758.1 kV=0.12 kW=1.2087758364235954 kvar=0.2417551672847191 Phases=1 Vminpu=0.0 Vmaxpu=1.2 model=1
New Load.motor_load_p1rlv6759_2 conn=wye bus1=p1rlv6759.2 kV=0.12 kW=1.2561782387500977 kvar=0.25123564775001955 Phases=1 Vminpu=0.0 Vmaxpu=1.2 model=1
New Load.motor_load_p1rlv6762_1 conn=wye bus1=p1rlv6762.1 kV=0.12 kW=1.1535098719230952 kvar=0.23070197438461904 Phases=1 Vminpu=0.0 Vmaxpu=1.2 model=1
New Load.motor_load_p1rlv6763_2 conn=wye bus1=p1rlv6763.2 kV=0.12 kW=1.130967698637459 kvar=0.22619353972749182 Phases=1 Vminpu=0.0 Vmaxpu=1.2 model=1
New Load.motor_load_p1rlv6765_1 conn=wye bus1=p1rlv6765.1 kV=0.12 kW=1.08292823737262 kvar=0.216585647474524 Phases=1 Vminpu=0.0 Vmaxpu=1.2 model=1
New Load.motor_load_p1rlv6766_1 conn=wye bus1=p1rlv6766.1 kV=0.12 kW=1.1105944889215578 kvar=0.22211889778431157 Phases=1 Vminpu=0.0 Vmaxpu=1.2 model=1
New Load.motor_load_p1rlv6767_1 conn=wye bus1=p1rlv6767.1 kV=0.12 kW=1.1017631864413875 kvar=0.2203526372882775 Phases=1 Vminpu=0.0 Vmaxpu=1.2 model=1
New Load.motor_load_p1rlv6768_1 conn=wye bus1=p1rlv6768.1 kV=0.12 kW=1.1354759609660978 kvar=0.22709519219321958 Phases=1 Vminpu=0.0 Vmaxpu=1.2 model=1
New Load.motor_load_p1rlv6769_2 conn=wye bus1=p1rlv6769.2 kV=0.12 kW=1.1773461366901452 kvar=0.23546922733802905 Phases=1 Vminpu=0.0 Vmaxpu=1.2 model=1
New Load.motor_load_p1rlv6770_1 conn=wye bus1=p1rlv6770.1 kV=0.12 kW=1.054045781984619 kvar=0.2108091563969238 Phases=1 Vminpu=0.0 Vmaxpu=1.2 model=1
New Load.motor_load_p1rlv6771_1 conn=wye bus1=p1rlv6771.1 kV=0.12 kW=1.2458846940786255 kvar=0.2491769388157251 Phases=1 Vminpu=0.0 Vmaxpu=1.2 model=1
New Load.motor_load_p1rlv6772_1 conn=wye bus1=p1rlv6772.1 kV=0.12 kW=1.2461625983961486 kvar=0.24923251967922974 Phases=1 Vminpu=0.0 Vmaxpu=1.2 model=1
New Load.motor_load_p1rlv6772_2 conn=wye bus1=p1rlv6772.2 kV=0.12 kW=1.1830380903246112 kvar=0.23660761806492225 Phases=1 Vminpu=0.0 Vmaxpu=1.2 model=1
New Load.motor_load_p1rlv6774_1 conn=wye bus1=p1rlv6774.1 kV=0.12 kW=1.1184942878218351 kvar=0.22369885756436703 Phases=1 Vminpu=0.0 Vmaxpu=1.2 model=1
New Load.motor_load_p1rlv6775_2 conn=wye bus1=p1rlv6775.2 kV=0.12 kW=1.1232816077949588 kvar=0.22465632155899176 Phases=1 Vminpu=0.0 Vmaxpu=1.2 model=1
New Load.motor_load_p1rlv6776_2 conn=wye bus1=p1rlv6776.2 kV=0.12 kW=1.0706921931624878 kvar=0.21413843863249757 Phases=1 Vminpu=0.0 Vmaxpu=1.2 model=1
New Load.motor_load_p1rlv6780_2 conn=wye bus1=p1rlv6780.2 kV=0.12 kW=1.0949193731088975 kvar=0.2189838746217795 Phases=1 Vminpu=0.0 Vmaxpu=1.2 model=1
New Load.motor_load_p1rlv6781_2 conn=wye bus1=p1rlv6781.2 kV=0.12 kW=1.2436199187217991 kvar=0.24872398374435983 Phases=1 Vminpu=0.0 Vmaxpu=1.2 model=1
New Load.motor_load_p1rlv6782_2 conn=wye bus1=p1rlv6782.2 kV=0.12 kW=1.0998468450191317 kvar=0.21996936900382635 Phases=1 Vminpu=0.0 Vmaxpu=1.2 model=1
New Load.motor_load_p1rlv6787_1 conn=wye bus1=p1rlv6787.1 kV=0.12 kW=1.1055155052780372 kvar=0.22110310105560746 Phases=1 Vminpu=0.0 Vmaxpu=1.2 model=1
New Load.motor_load_p1rlv6787_2 conn=wye bus1=p1rlv6787.2 kV=0.12 kW=1.0801992751662122 kvar=0.21603985503324244 Phases=1 Vminpu=0.0 Vmaxpu=1.2 model=1
New Load.motor_load_p1rlv6788_1 conn=wye bus1=p1rlv6788.1 kV=0.12 kW=1.0548716513861678 kvar=0.21097433027723356 Phases=1 Vminpu=0.0 Vmaxpu=1.2 model=1
New Load.motor_load_p1rlv6789_2 conn=wye bus1=p1rlv6789.2 kV=0.12 kW=1.1739300750876147 kvar=0.23478601501752294 Phases=1 Vminpu=0.0 Vmaxpu=1.2 model=1
New Load.motor_load_p1rlv6790_2 conn=wye bus1=p1rlv6790.2 kV=0.12 kW=1.25367974040555 kvar=0.25073594808111 Phases=1 Vminpu=0.0 Vmaxpu=1.2 model=1
New Load.motor_load_p1rlv6792_2 conn=wye bus1=p1rlv6792.2 kV=0.12 kW=1.0752813164552304 kvar=0.2150562632910461 Phases=1 Vminpu=0.0 Vmaxpu=1.2 model=1
New Load.motor_load_p1rlv6793_1 conn=wye bus1=p1rlv6793.1 kV=0.12 kW=1.1874681861081122 kvar=0.23749363722162245 Phases=1 Vminpu=0.0 Vmaxpu=1.2 model=1
New Load.motor_load_p1rlv6794_2 conn=wye bus1=p1rlv6794.2 kV=0.12 kW=1.2143343963889153 kvar=0.24286687927778305 Phases=1 Vminpu=0.0 Vmaxpu=1.2 model=1
New Load.motor_load_p1rlv6797_1 conn=wye bus1=p1rlv6797.1 kV=0.12 kW=1.2544959030985994 kvar=0.2508991806197199 Phases=1 Vminpu=0.0 Vmaxpu=1.2 model=1
New Load.motor_load_p1rlv6797_2 conn=wye bus1=p1rlv6797.2 kV=0.12 kW=1.2399129006383478 kvar=0.24798258012766958 Phases=1 Vminpu=0.0 Vmaxpu=1.2 model=1
New Load.motor_load_p1rlv6798_2 conn=wye bus1=p1rlv6798.2 kV=0.12 kW=1.1316300546593845 kvar=0.2263260109318769 Phases=1 Vminpu=0.0 Vmaxpu=1.2 model=1
New Load.motor_load_p1rlv6801_2 conn=wye bus1=p1rlv6801.2 kV=0.12 kW=1.1158643970814404 kvar=0.22317287941628808 Phases=1 Vminpu=0.0 Vmaxpu=1.2 model=1
New Load.motor_load_p1rlv6802_2 conn=wye bus1=p1rlv6802.2 kV=0.12 kW=1.2097303295230883 kvar=0.24194606590461767 Phases=1 Vminpu=0.0 Vmaxpu=1.2 model=1
New Load.motor_load_p1rlv6804_1 conn=wye bus1=p1rlv6804.1 kV=0.12 kW=1.1436590485255254 kvar=0.2287318097051051 Phases=1 Vminpu=0.0 Vmaxpu=1.2 model=1
New Load.motor_load_p1rlv6806_1 conn=wye bus1=p1rlv6806.1 kV=0.12 kW=1.2194375121436511 kvar=0.24388750242873025 Phases=1 Vminpu=0.0 Vmaxpu=1.2 model=1
New Load.motor_load_p1rlv6807_1 conn=wye bus1=p1rlv6807.1 kV=0.12 kW=1.093675477004129 kvar=0.2187350954008258 Phases=1 Vminpu=0.0 Vmaxpu=1.2 model=1
New Load.motor_load_p1rlv6808_2 conn=wye bus1=p1rlv6808.2 kV=0.12 kW=1.1824300215462955 kvar=0.23648600430925912 Phases=1 Vminpu=0.0 Vmaxpu=1.2 model=1
New Load.motor_load_p1rlv6809_1 conn=wye bus1=p1rlv6809.1 kV=0.12 kW=1.1513750886491312 kvar=0.23027501772982625 Phases=1 Vminpu=0.0 Vmaxpu=1.2 model=1
New Load.motor_load_p1rlv6810_1 conn=wye bus1=p1rlv6810.1 kV=0.12 kW=1.1930824119371004 kvar=0.2386164823874201 Phases=1 Vminpu=0.0 Vmaxpu=1.2 model=1
New Load.motor_load_p1rlv6810_2 conn=wye bus1=p1rlv6810.2 kV=0.12 kW=1.1357514270539684 kvar=0.22715028541079368 Phases=1 Vminpu=0.0 Vmaxpu=1.2 model=1
New Load.motor_load_p1rlv6811_2 conn=wye bus1=p1rlv6811.2 kV=0.12 kW=1.082598752264551 kvar=0.21651975045291022 Phases=1 Vminpu=0.0 Vmaxpu=1.2 model=1
New Load.motor_load_p1rlv6812_1 conn=wye bus1=p1rlv6812.1 kV=0.12 kW=1.1079887085101683 kvar=0.22159774170203367 Phases=1 Vminpu=0.0 Vmaxpu=1.2 model=1
New Load.motor_load_p1rlv6813_1 conn=wye bus1=p1rlv6813.1 kV=0.12 kW=1.2219523555644214 kvar=0.24439047111288428 Phases=1 Vminpu=0.0 Vmaxpu=1.2 model=1
New Load.motor_load_p1rlv6813_2 conn=wye bus1=p1rlv6813.2 kV=0.12 kW=1.1113313699994223 kvar=0.22226627399988447 Phases=1 Vminpu=0.0 Vmaxpu=1.2 model=1
New Load.motor_load_p1rlv6815_1 conn=wye bus1=p1rlv6815.1 kV=0.12 kW=1.1633064901144012 kvar=0.23266129802288027 Phases=1 Vminpu=0.0 Vmaxpu=1.2 model=1