New Generator.pv_load_p1rlv4347_1 conn=wye bus1=p1rlv4347.1 kV=0.12 model=7 kW=0.07063582778971297 kvar=-0.0 Phases=1
New Generator.pv_load_p1rlv4347_2 conn=wye bus1=p1rlv4347.2 kV=0.12 model=7 kW=0.07063582778971297 kvar=-0.0 Phases=1
New Generator.pv_load_p1rlv4348_2 conn=wye bus1=p1rlv4348.2 kV=0.12 model=7 kW=0.4764155555115878 kvar=-0.0 Phases=1
New Generator.pv_load_p1rlv4353_1 conn=wye bus1=p1rlv4353.1 kV=0.12 model=7 kW=0.16531763901865335 kvar=-0.0 Phases=1
New Generator.pv_load_p1rlv4356_2 conn=wye bus1=p1rlv4356.2 kV=0.12 model=7 kW=0.16080901712379822 kvar=-0.0 Phases=1
New Generator.pv_load_p1rlv4618_1 conn=wye bus1=p1rlv4618.1 kV=0.12 model=7 kW=0.22994272238554195 kvar=-0.0 Phases=1
New Generator.pv_load_p1rlv4626_1 conn=wye bus1=p1rlv4626.1 kV=0.12 model=7 kW=0.19838086624759108 kvar=-0.0 Phases=1
New Generator.pv_load_p1rlv4628_2 conn=wye bus1=p1rlv4628.2 kV=0.12 model=7 kW=0.25248583185981766 kvar=-0.0 Phases=1
New Generator.pv_load_p1rlv4629_2 conn=wye bus1=p1rlv4629.2 kV=0.12 model=7 kW=0.28404618512380364 kvar=-0.0 Phases=1
New Generator.pv_load_p1rlv4630_1 conn=wye bus1=p1rlv4630.1 kV=0.12 model=7 kW=0.2058952360723496 kvar=-0.0 Phases=1
New Generator.pv_load_p1rlv4632_2 conn=wye bus1=p1rlv4632.2 kV=0.12 model=7 kW=0.26901744547428647 kvar=-0.0 Phases=1
New Generator.pv_load_p1rlv4633_1 conn=wye bus1=p1rlv4633.1 kV=0.12 model=7 kW=0.25248583185981766 kvar=-0.0 Phases=1
New Generator.pv_load_p1rlv4634_1 conn=wye bus1=p1rlv4634.1 kV=0.12 model=7 kW=0.2600002016845762 kvar=-0.0 Phases=1
New Generator.pv_load_p1rlv4638_2 conn=wye bus1=p1rlv4638.2 kV=0.12 model=7 kW=0.23595421824534882 kvar=-0.0 Phases=1
New Generator.pv_load_p1rlv4641_1 conn=wye bus1=p1rlv4641.1 kV=0.12 model=7 kW=0.1563003952289431 kvar=-0.0 Phases=1
New Generator.pv_load_p1rlv4653_1 conn=wye bus1=p1rlv4653.1 kV=0.12 model=7 kW=0.1818492526331222 kvar=-0.0 Phases=1
New Generator.pv_load_p1rlv4656_2 conn=wye bus1=p1rlv4656.2 kV=0.12 model=7 kW=0.3441611437218722 kvar=-0.0 Phases=1
New Generator.pv_load_p1rlv4657_1 conn=wye bus1=p1rlv4657.1 kV=0.12 model=7 kW=0.21190673193215645 kvar=-0.0 Phases=1
New Generator.pv_load_p1rlv4658_2 conn=wye bus1=p1rlv4658.2 kV=0.12 model=7 kW=0.23745709221030054 kvar=-0.0 Phases=1
New Generator.pv_load_p1rlv4659_2 conn=wye bus1=p1rlv4659.2 kV=0.12 model=7 kW=0.29456630287846564 kvar=-0.0 Phases=1
New Generator.pv_load_p1rlv4661_2 conn=wye bus1=p1rlv4661.2 kV=0.12 model=7 kW=0.11872824553035728 kvar=-0.0 Phases=1
New Generator.pv_load_p1rlv4665_1 conn=wye bus1=p1rlv4665.1 kV=0.12 model=7 kW=0.2900576809836105 kvar=-0.0 Phases=1
New Generator.pv_load_p1rlv4666_1 conn=wye bus1=p1rlv4666.1 kV=0.12 model=7 kW=0.22543410049068682 kvar=-0.0 Phases=1
New Generator.pv_load_p1rlv4668_2 conn=wye bus1=p1rlv4668.2 kV=0.12 model=7 kW=0.3832373696845817 kvar=-0.0 Phases=1
New Generator.pv_load_p1rlv4670_2 conn=wye bus1=p1rlv4670.2 kV=0.12 model=7 kW=0.23895996617525225 kvar=-0.0 Phases=1
New Generator.pv_load_p1rlv4672_2 conn=wye bus1=p1rlv4672.2 kV=0.12 model=7 kW=0.20739811003730133 kvar=-0.0 Phases=1
New Generator.pv_load_p1rlv4676_2 conn=wye bus1=p1rlv4676.2 kV=0.12 model=7 kW=0.470404059651781 kvar=-0.0 Phases=1
New Generator.pv_load_p1rlv4679_1 conn=wye bus1=p1rlv4679.1 kV=0.12 model=7 kW=0.20890098400225304 kvar=-0.0 Phases=1
New Generator.pv_load_p1rlv4679_2 conn=wye bus1=p1rlv4679.2 kV=0.12 model=7 kW=0.20890098400225304 kvar=-0.0 Phases=1
New Generator.pv_load_p1rlv4683_1 conn=wye bus1=p1rlv4683.1 kV=0.12 model=7 kW=0.4749126815466361 kvar=-0.0 Phases=1
New Generator.pv_load_p1rlv4683_2 conn=wye bus1=p1rlv4683.2 kV=0.12 model=7 kW=0.4749126815466361 kvar=-0.0 Phases=1
New Generator.pv_load_p1rlv4685_1 conn=wye bus1=p1rlv4685.1 kV=0.12 model=7 kW=0.4568781939672155 kvar=-0.0 Phases=1
New Generator.pv_load_p1rlv4686_1 conn=wye bus1=p1rlv4686.1 kV=0.12 model=7 kW=0.22843984842059023 kvar=-0.0 Phases=1
New Generator.pv_load_p1rlv4816_1 conn=wye bus1=p1rlv4816.1 kV=0.12 model=7 kW=2.6330652440747 kvar=-0.0 Phases=1
New Generator.pv_load_p1rlv4820_1 conn=wye bus1=p1rlv4820.1 kV=0.12 model=7 kW=1.09259989263765 kvar=-0.0 Phases=1
New Generator.pv_load_p1rlv4826_2 conn=wye bus1=p1rlv4826.2 kV=0.12 model=7 kW=0.29456630287846564 kvar=-0.0 Phases=1
New Generator.pv_load_p1rlv4828_2 conn=wye bus1=p1rlv4828.2 kV=0.12 model=7 kW=0.2720231934041899 kvar=-0.0 Phases=1
New Generator.pv_load_p1rlv5995_2 conn=wye bus1=p1rlv5995.2 kV=0.12 model=7 kW=0.21791822779196332 kvar=-0.0 Phases=1
New Generator.pv_load_p1rlv5998_1 conn=wye bus1=p1rlv5998.1 kV=0.12 model=7 kW=0.1698262609135085 kvar=-0.0 Phases=1
New Generator.pv_load_p1rlv6007_1 conn=wye bus1=p1rlv6007.1 kV=0.12 model=7 kW=0.19838086624759108 kvar=-0.0 Phases=1
New Generator.pv_load_p1rlv6010_1 conn=wye bus1=p1rlv6010.1 kV=0.12 model=7 kW=0.1352600094322226 kvar=-0.0 Phases=1
New Generator.pv_load_p1rlv6266_2 conn=wye bus1=p1rlv6266.2 kV=0.12 model=7 kW=0.29456630287846564 kvar=-0.0 Phases=1
New Generator.pv_load_p1rlv6269_2 conn=wye bus1=p1rlv6269.2 kV=0.12 model=7 kW=0.2960691768434174 kvar=-0.0 Phases=1
New Generator.pv_load_p1rlv6270_1 conn=wye bus1=p1rlv6270.1 kV=0.12 model=7 kW=0.2915605549485622 kvar=-0.0 Phases=1
New Generator.pv_load_p1rlv6270_2 conn=wye bus1=p1rlv6270.2 kV=0.12 model=7 kW=0.2915605549485622 kvar=-0.0 Phases=1
New Generator.pv_load_p1rlv6273_2 conn=wye bus1=p1rlv6273.2 kV=0.12 model=7 kW=0.2825433111588519 kvar=-0.0 Phases=1
New Generator.pv_load_p1rlv6279_1 conn=wye bus1=p1rlv6279.1 kV=0.12 model=7 kW=0.4193063448434227 kvar=-0.0 Phases=1
New Generator.pv_load_p1rlv6281_1 conn=wye bus1=p1rlv6281.1 kV=0.12 model=7 kW=0.29907492477332076 kvar=-0.0 Phases=1
New Generator.pv_load_p1rlv6281_2 conn=wye bus1=p1rlv6281.2 kV=0.12 model=7 kW=0.29907492477332076 kvar=-0.0 Phases=1
New Generator.pv_load_p1rlv6284_2 conn=wye bus1=p1rlv6284.2 kV=0.12 model=7 kW=0.17283200884341193 kvar=-0.0 Phases=1
New Generator.pv_load_p1rlv6287_1 conn=wye bus1=p1rlv6287.1 kV=0.12 model=7 kW=0.31109791649293445 kvar=-0.0 Phases=1
New Generator.pv_load_p1rlv6289_2 conn=wye bus1=p1rlv6289.2 kV=0.12 model=7 kW=0.2765318152990451 kvar=-0.0 Phases=1
New Generator.pv_load_p1rlv6291_2 conn=wye bus1=p1rlv6291.2 kV=0.12 model=7 kW=0.22843984842059023 kvar=-0.0 Phases=1
New Generator.pv_load_p1rlv6292_2 conn=wye bus1=p1rlv6292.2 kV=0.12 model=7 kW=0.26901744547428647 kvar=-0.0 Phases=1
New Generator.pv_load_p1rlv6295_2 conn=wye bus1=p1rlv6295.2 kV=0.12 model=7 kW=0.3471668916517756 kvar=-0.0 Phases=1
New Generator.pv_load_p1rlv6298_1 conn=wye bus1=p1rlv6298.1 kV=0.12 model=7 kW=0.2870519330537071 kvar=-0.0 Phases=1
New Generator.pv_load_p1rlv6299_1 conn=wye bus1=p1rlv6299.1 kV=0.12 model=7 kW=0.3005777987382725 kvar=-0.0 Phases=1
New Generator.pv_load_p1rlv6299_2 conn=wye bus1=p1rlv6299.2 kV=0.12 model=7 kW=0.3005777987382725 kvar=-0.0 Phases=1
New Generator.pv_load_p1rlv6304_2 conn=wye bus1=p1rlv6304.2 kV=0.12 model=7 kW=0.2675145715093348 kvar=-0.0 Phases=1
New Generator.pv_load_p1rlv6306_1 conn=wye bus1=p1rlv6306.1 kV=0.12 model=7 kW=0.35317838751158254 kvar=-0.0 Phases=1
New Generator.pv_load_p1rlv6309_2 conn=wye bus1=p1rlv6309.2 kV=0.12 model=7 kW=0.4208092188083745 kvar=-0.0 Phases=1
New Generator.pv_load_p1rlv6315_1 conn=wye bus1=p1rlv6315.1 kV=0.12 model=7 kW=0.4178034708784711 kvar=-0.0 Phases=1
New Generator.pv_load_p1rlv6317_2 conn=wye bus1=p1rlv6317.2 kV=0.12 model=7 kW=0.18936362245788077 kvar=-0.0 Phases=1
New Generator.pv_load_p1rlv6319_1 conn=wye bus1=p1rlv6319.1 kV=0.12 model=7 kW=0.2675145715093348 kvar=-0.0 Phases=1
New Generator.pv_load_p1rlv6323_2 conn=wye bus1=p1rlv6323.2 kV=0.12 model=7 kW=0.2058952360723496 kvar=-0.0 Phases=1
New Generator.pv_load_p1rlv6326_1 conn=wye bus1=p1rlv6326.1 kV=0.12 model=7 kW=0.2795375632289485 kvar=-0.0 Phases=1
New Generator.pv_load_p1rlv6326_2 conn=wye bus1=p1rlv6326.2 kV=0.12 model=7 kW=0.2795375632289485 kvar=-0.0 Phases=1
New Generator.pv_load_p1rlv6328_2 conn=wye bus1=p1rlv6328.2 kV=0.12 model=7 kW=0.3516755135466307 kvar=-0.0 Phases=1
New Generator.pv_load_p1rlv6330_1 conn=wye bus1=p1rlv6330.1 kV=0.12 model=7 kW=0.19537511831768767 kvar=-0.0 Phases=1
New Generator.pv_load_p1rlv6337_1 conn=wye bus1=p1rlv6337.1 kV=0.12 model=7 kW=0.34566401768682387 kvar=-0.0 Phases=1
New Generator.pv_load_p1rlv6338_2 conn=wye bus1=p1rlv6338.2 kV=0.12 model=7 kW=0.19687799228263936 kvar=-0.0 Phases=1
New Generator.pv_load_p1rlv6340_2 conn=wye bus1=p1rlv6340.2 kV=0.12 model=7 kW=0.38774599157943673 kvar=-0.0 Phases=1
New Generator.pv_load_p1rlv6341_1 conn=wye bus1=p1rlv6341.1 kV=0.12 model=7 kW=0.339652521827017 kvar=-0.0 Phases=1
New Generator.pv_load_p1rlv6343_2 conn=wye bus1=p1rlv6343.2 kV=0.12 model=7 kW=0.23745709221030054 kvar=-0.0 Phases=1
New Generator.pv_load_p1rlv6345_2 conn=wye bus1=p1rlv6345.2 kV=0.12 model=7 kW=0.3156065383877897 kvar=-0.0 Phases=1
New Generator.pv_load_p1rlv6352_2 conn=wye bus1=p1rlv6352.2 kV=0.12 model=7 kW=0.25248583185981766 kvar=-0.0 Phases=1
New Generator.pv_load_p1rlv6353_2 conn=wye bus1=p1rlv6353.2 kV=0.12 model=7 kW=0.841618437616749 kvar=-0.0 Phases=1
New Generator.pv_load_p1rlv6354_1 conn=wye bus1=p1rlv6354.1 kV=0.12 model=7 kW=0.24196571410515566 kvar=-0.0 Phases=1
New Generator.pv_load_p1rlv6355_1 conn=wye bus1=p1rlv6355.1 kV=0.12 model=7 kW=0.3261266561424516 kvar=-0.0 Phases=1
New Generator.pv_load_p1rlv6360_2 conn=wye bus1=p1rlv6360.2 kV=0.12 model=7 kW=0.21942110175691504 kvar=-0.0 Phases=1
New Generator.pv_load_p1rlv6713_1 conn=wye bus1=p1rlv6713.1 kV=0.12 model=7 kW=0.35918988337138924 kvar=-0.0 Phases=1
New Generator.pv_load_p1rlv6714_1 conn=wye bus1=p1rlv6714.1 kV=0.12 model=7 kW=0.44184945431769845 kvar=-0.0 Phases=1
New Generator.pv_load_p1rlv6714_2 conn=wye bus1=p1rlv6714.2 kV=0.12 model=7 kW=0.44184945431769845 kvar=-0.0 Phases=1
New Generator.pv_load_p1rlv6715_1 conn=wye bus1=p1rlv6715.1 kV=0.12 model=7 kW=0.5109816567054772 kvar=-0.0 Phases=1
New Generator.pv_load_p1rlv6716_2 conn=wye bus1=p1rlv6716.2 kV=0.12 model=7 kW=0.2164153538270116 kvar=-0.0 Phases=1
New Generator.pv_load_p1rlv6720_1 conn=wye bus1=p1rlv6720.1 kV=0.12 model=7 kW=0.23595421824534882 kvar=-0.0 Phases=1
New Generator.pv_load_p1rlv6720_2 conn=wye bus1=p1rlv6720.2 kV=0.12 model=7 kW=0.23595421824534882 kvar=-0.0 Phases=1
New Generator.pv_load_p1rlv6722_1 conn=wye bus1=p1rlv6722.1 kV=0.12 model=7 kW=0.3246237821774999 kvar=-0.0 Phases=1
New Generator.pv_load_p1rlv6728_1 conn=wye bus1=p1rlv6728.1 kV=0.12 model=7 kW=0.21491247986205989 kvar=-0.0 Phases=1
New Generator.pv_load_p1rlv6728_2 conn=wye bus1=p1rlv6728.2 kV=0.12 model=7 kW=0.21491247986205989 kvar=-0.0 Phases=1
New Generator.pv_load_p1rlv6731_2 conn=wye bus1=p1rlv6731.2 kV=0.12 model=7 kW=1.1587278499694902 kvar=-0.0 Phases=1
New Generator.pv_load_p1rlv6735_1 conn=wye bus1=p1rlv6735.1 kV=0.12 model=7 kW=0.3802316217546783 kvar=-0.0 Phases=1
New Generator.pv_load_p1rlv6735_2 conn=wye bus1=p1rlv6735.2 kV=0.12 model=7 kW=0.3802316217546783 kvar=-0.0 Phases=1
New Generator.pv_load_p1rlv6737_2 conn=wye bus1=p1rlv6737.2 kV=0.12 model=7 kW=0.3922546134742919 kvar=-0.0 Phases=1
New Generator.pv_load_p1rlv6738_1 conn=wye bus1=p1rlv6738.1 kV=0.12 model=7 kW=0.22693697445563854 kvar=-0.0 Phases=1
New Generator.pv_load_p1rlv6739_2 conn=wye bus1=p1rlv6739.2 kV=0.12 model=7 kW=0.0616184337126062 kvar=-0.0 Phases=1
New Generator.pv_load_p1rlv6741_1 conn=wye bus1=p1rlv6741.1 kV=0.12 model=7 kW=0.40277473122895385 kvar=-0.0 Phases=1
New Generator.pv_load_p1rlv6742_1 conn=wye bus1=p1rlv6742.1 kV=0.12 model=7 kW=0.17283200884341193 kvar=-0.0 Phases=1
New Generator.pv_load_p1rlv6742_2 conn=wye bus1=p1rlv6742.2 kV=0.12 model=7 kW=0.17283200884341193 kvar=-0.0 Phases=1
New Generator.pv_load_p1rlv6743_1 conn=wye bus1=p1rlv6743.1 kV=0.12 model=7 kW=0.25098295789486597 kvar=-0.0 Phases=1
New Generator.pv_load_p1rlv6747_2 conn=wye bus1=p1rlv6747.2 kV=0.12 model=7 kW=0.16832338694855678 kvar=-0.0 Phases=1
New Generator.pv_load_p1rlv6748_1 conn=wye bus1=p1rlv6748.1 kV=0.12 model=7 kW=0.22693697445563854 kvar=-0.0 Phases=1
New Generator.pv_load_p1rlv6750_1 conn=wye bus1=p1rlv6750.1 kV=0.12 model=7 kW=0.20739811003730133 kvar=-0.0 Phases=1
New Generator.pv_load_p1rlv6753_1 conn=wye bus1=p1rlv6753.1 kV=0.12 model=7 kW=0.2705203194392382 kvar=-0.0 Phases=1
New Generator.pv_load_p1rlv6753_2 conn=wye bus1=p1rlv6753.2 kV=0.12 model=7 kW=0.2705203194392382 kvar=-0.0 Phases=1
New Generator.pv_load_p1rlv6754_1 conn=wye bus1=p1rlv6754.1 kV=0.12 model=7 kW=0.30959504252798276 kvar=-0.0 Phases=1
New Generator.pv_load_p1rlv6754_2 conn=wye bus1=p1rlv6754.2 kV=0.12 model=7 kW=0.30959504252798276 kvar=-0.0 Phases=1
New Generator.pv_load_p1rlv6755_1 conn=wye bus1=p1rlv6755.1 kV=0.12 model=7 kW=0.29907492477332076 kvar=-0.0 Phases=1
New Generator.pv_load_p1rlv6758_2 conn=wye bus1=p1rlv6758.2 kV=0.12 model=7 kW=0.3126007904578862 kvar=-0.0 Phases=1
New Generator.pv_load_p1rlv6759_2 conn=wye bus1=p1rlv6759.2 kV=0.12 model=7 kW=0.2600002016845762 kvar=-0.0 Phases=1
New Generator.pv_load_p1rlv6762_1 conn=wye bus1=p1rlv6762.1 kV=0.12 model=7 kW=0.2960691768434174 kvar=-0.0 Phases=1
New Generator.pv_load_p1rlv6764_2 conn=wye bus1=p1rlv6764.2 kV=0.12 model=7 kW=0.4944500430910083 kvar=-0.0 Phases=1
New Generator.pv_load_p1rlv6771_1 conn=wye bus1=p1rlv6771.1 kV=0.12 model=7 kW=0.35017263958167905 kvar=-0.0 Phases=1
New Generator.pv_load_p1rlv6773_2 conn=wye bus1=p1rlv6773.2 kV=0.12 model=7 kW=0.15780326919389484 kvar=-0.0 Phases=1
New Generator.pv_load_p1rlv6775_2 conn=wye bus1=p1rlv6775.2 kV=0.12 model=7 kW=0.43433508449293984 kvar=-0.0 Phases=1
New Generator.pv_load_p1rlv6776_1 conn=wye bus1=p1rlv6776.1 kV=0.12 model=7 kW=0.32161803424759644 kvar=-0.0 Phases=1
New Generator.pv_load_p1rlv6776_2 conn=wye bus1=p1rlv6776.2 kV=0.12 model=7 kW=0.32161803424759644 kvar=-0.0 Phases=1
New Generator.pv_load_p1rlv6777_2 conn=wye bus1=p1rlv6777.2 kV=0.12 model=7 kW=0.29907492477332076 kvar=-0.0 Phases=1
New Generator.pv_load_p1rlv6778_2 conn=wye bus1=p1rlv6778.2 kV=0.12 model=7 kW=0.3020806727032242 kvar=-0.0 Phases=1
New Generator.pv_load_p1rlv6780_1 conn=wye bus1=p1rlv6780.1 kV=0.12 model=7 kW=2.4557261162103976 kvar=-0.0 Phases=1
New Generator.pv_load_p1rlv6782_2 conn=wye bus1=p1rlv6782.2 kV=0.12 model=7 kW=0.3697100011260513 kvar=-0.0 Phases=1
New Generator.pv_load_p1rlv6783_2 conn=wye bus1=p1rlv6783.2 kV=0.12 model=7 kW=0.371212875091003 kvar=-0.0 Phases=1
New Generator.pv_load_p1rlv6788_2 conn=wye bus1=p1rlv6788.2 kV=0.12 model=7 kW=0.35317838751158254 kvar=-0.0 Phases=1
New Generator.pv_load_p1rlv6792_2 conn=wye bus1=p1rlv6792.2 kV=0.12 model=7 kW=0.34115539579196874 kvar=-0.0 Phases=1
New Generator.pv_load_p1rlv6793_2 conn=wye bus1=p1rlv6793.2 kV=0.12 model=7 kW=0.30358354666817594 kvar=-0.0 Phases=1
New Generator.pv_load_p1rlv6795_2 conn=wye bus1=p1rlv6795.2 kV=0.12 model=7 kW=0.940808119303562 kvar=-0.0 Phases=1
New Generator.pv_load_p1rlv6799_2 conn=wye bus1=p1rlv6799.2 kV=0.12 model=7 kW=1.2744491452707722 kvar=-0.0 Phases=1
New Generator.pv_load_p1rlv6801_2 conn=wye bus1=p1rlv6801.2 kV=0.12 model=7 kW=1.9612655530016347 kvar=-0.0 Phases=1
New Generator.pv_load_p1rlv6803_2 conn=wye bus1=p1rlv6803.2 kV=0.12 model=7 kW=0.39075173950934017 kvar=-0.0 Phases=1
New Generator.pv_load_p1rlv6806_2 conn=wye bus1=p1rlv6806.2 kV=0.12 model=7 kW=0.548555008703235 kvar=-0.0 Phases=1
New Generator.pv_load_p1rlv6807_2 conn=wye bus1=p1rlv6807.2 kV=0.12 model=7 kW=0.34115539579196874 kvar=-0.0 Phases=1
New Generator.pv_load_p1rlv6813_1 conn=wye bus1=p1rlv6813.1 kV=0.12 model=7 kW=0.3020806727032242 kvar=-0.0 Phases=1
New Generator.pv_load_p1rlv6816_2 conn=wye bus1=p1rlv6816.2 kV=0.12 model=7 kW=0.28404618512380364 kvar=-0.0 Phases=1
New Generator.pv_load_p1rlv6818_1 conn=wye bus1=p1rlv6818.1 kV=0.12 model=7 kW=0.21190673193215645 kvar=-0.0 Phases=1
New Generator.pv_load_p1rlv6818_2 conn=wye bus1=p1rlv6818.2 kV=0.12 model=7 kW=0.21190673193215645 kvar=-0.0 Phases=1
New Generator.pv_load_p1rlv6819_1 conn=wye bus1=p1rlv6819.1 kV=0.12 model=7 kW=0.3757214969858581 kvar=-0.0 Phases=1
New Generator.pv_load_p1rlv6822_2 conn=wye bus1=p1rlv6822.2 kV=0.12 model=7 kW=0.2675145715093348 kvar=-0.0 Phases=1
New Generator.pv_load_p1rlv6823_2 conn=wye bus1=p1rlv6823.2 kV=0.12 model=7 kW=0.371212875091003 kvar=-0.0 Phases=1
New Generator.pv_load_p1rlv6826_2 conn=wye bus1=p1rlv6826.2 kV=0.12 model=7 kW=0.37722587382477485 kvar=-0.0 Phases=1
New Generator.pv_load_p1rlv6827_2 conn=wye bus1=p1rlv6827.2 kV=0.12 model=7 kW=0.32762953010740326 kvar=-0.0 Phases=1
New Generator.pv_load_p1rlv6828_2 conn=wye bus1=p1rlv6828.2 kV=0.12 model=7 kW=0.2810404371939002 kvar=-0.0 Phases=1
New Generator.pv_load_p1rlv6829_2 conn=wye bus1=p1rlv6829.2 kV=0.12 model=7 kW=0.4208092188083745 kvar=-0.0 Phases=1
New Generator.pv_load_p1rlv6832_1 conn=wye bus1=p1rlv6832.1 kV=0.12 model=7 kW=0.22843984842059023 kvar=-0.0 Phases=1
New Generator.pv_load_p1rlv6833_1 conn=wye bus1=p1rlv6833.1 kV=0.12 model=7 kW=0.3020806727032242 kvar=-0.0 Phases=1
New Generator.pv_load_p1rlv6834_1 conn=wye bus1=p1rlv6834.1 kV=0.12 model=7 kW=0.25248583185981766 kvar=-0.0 Phases=1
New Generator.pv_load_p1rlv6834_2 conn=wye bus1=p1rlv6834.2 kV=0.12 model=7 kW=0.25248583185981766 kvar=-0.0 Phases=1
New Generator.pv_load_p1rlv6835_1 conn=wye bus1=p1rlv6835.1 kV=0.12 model=7 kW=0.24797720996496253 kvar=-0.0 Phases=1
New Generator.pv_load_p1rlv6839_2 conn=wye bus1=p1rlv6839.2 kV=0.12 model=7 kW=1.6667022558710993 kvar=-0.0 Phases=1
New Generator.pv_load_p1rlv6841_1 conn=wye bus1=p1rlv6841.1 kV=0.12 model=7 kW=0.3126007904578862 kvar=-0.0 Phases=1
New Generator.pv_load_p1rlv6843_2 conn=wye bus1=p1rlv6843.2 kV=0.12 model=7 kW=0.20890098400225304 kvar=-0.0 Phases=1
New Generator.pv_load_p1rlv6848_2 conn=wye bus1=p1rlv6848.2 kV=0.12 model=7 kW=0.17132913487846022 kvar=-0.0 Phases=1
New Generator.pv_load_p1rlv6849_2 conn=wye bus1=p1rlv6849.2 kV=0.12 model=7 kW=0.19988374021254274 kvar=-0.0 Phases=1
New Generator.pv_load_p1rlv6852_1 conn=wye bus1=p1rlv6852.1 kV=0.12 model=7 kW=0.24948008392991425 kvar=-0.0 Phases=1
New Generator.pv_load_p1rlv6852_2 conn=wye bus1=p1rlv6852.2 kV=0.12 model=7 kW=0.24948008392991425 kvar=-0.0 Phases=1
New Generator.pv_load_p1rlv7316_1 conn=wye bus1=p1rlv7316.1 kV=0.12 model=7 kW=0.6131785891961586 kvar=-0.0 Phases=1
New Generator.pv_load_p1rlv7694_2 conn=wye bus1=p1rlv7694.2 kV=0.12 model=7 kW=0.48843854723120156 kvar=-0.0 Phases=1
New Generator.pv_load_p1rlv7697_2 conn=wye bus1=p1rlv7697.2 kV=0.12 model=7 kW=0.8025422116540395 kvar=-0.0 Phases=1
New Generator.pv_load_p1rlv7698_2 conn=wye bus1=p1rlv7698.2 kV=0.12 model=7 kW=0.14728315143923282 kvar=-0.0 Phases=1
New Generator.pv_load_p1rlv7700_2 conn=wye bus1=p1rlv7700.2 kV=0.12 model=7 kW=0.18635787452797736 kvar=-0.0 Phases=1
New Generator.pv_load_p1rlv7706_1 conn=wye bus1=p1rlv7706.1 kV=0.12 model=7 kW=0.2043923621073979 kvar=-0.0 Phases=1
New Generator.pv_load_p1rlv7710_1 conn=wye bus1=p1rlv7710.1 kV=0.12 model=7 kW=2.936645784994946 kvar=-0.0 Phases=1
New Generator.pv_load_p1rlv7711_2 conn=wye bus1=p1rlv7711.2 kV=0.12 model=7 kW=0.3697100011260513 kvar=-0.0 Phases=1
New Generator.pv_load_p1rlv7716_1 conn=wye bus1=p1rlv7716.1 kV=0.12 model=7 kW=0.14878602540418454 kvar=-0.0 Phases=1
New Generator.pv_load_p1rlv7718_2 conn=wye bus1=p1rlv7718.2 kV=0.12 model=7 kW=0.06612705560746135 kvar=-0.0 Phases=1
New Generator.pv_load_p1rlv7719_1 conn=wye bus1=p1rlv7719.1 kV=0.12 model=7 kW=0.1563003952289431 kvar=-0.0 Phases=1
New Generator.pv_load_p1rlv7722_1 conn=wye bus1=p1rlv7722.1 kV=0.12 model=7 kW=0.2705203194392382 kvar=-0.0 Phases=1
New Generator.pv_load_p1rlv8072_2 conn=wye bus1=p1rlv8072.2 kV=0.12 model=7 kW=0.6191900850559655 kvar=-0.0 Phases=1
New Generator.pv_load_p1rlv8073_2 conn=wye bus1=p1rlv8073.2 kV=0.12 model=7 kW=0.45086669810740876 kvar=-0.0 Phases=1
New Generator.pv_load_p1rlv8080_2 conn=wye bus1=p1rlv8080.2 kV=0.12 model=7 kW=0.2464743360000108 kvar=-0.0 Phases=1
New Generator.pv_load_p1rlv8121_1 conn=wye bus1=p1rlv8121.1 kV=0.12 model=7 kW=0.5680923702476073 kvar=-0.0 Phases=1
New Generator.pv_load_p1rlv8162_1 conn=wye bus1=p1rlv8162.1 kV=0.12 model=7 kW=0.12173399346026069 kvar=-0.0 Phases=1
New Generator.pv_load_p1rlv8163_1 conn=wye bus1=p1rlv8163.1 kV=0.12 model=7 kW=0.1818492526331222 kvar=-0.0 Phases=1
New Generator.pv_load_p1rlv8164_2 conn=wye bus1=p1rlv8164.2 kV=0.12 model=7 kW=0.14277437925698117 kvar=-0.0 Phases=1
New Generator.pv_load_p1rlv8179_2 conn=wye bus1=p1rlv8179.2 kV=0.12 model=7 kW=0.5831211098971244 kvar=-0.0 Phases=1
New Generator.pv_load_p1rlv8180_1 conn=wye bus1=p1rlv8180.1 kV=0.12 model=7 kW=0.438843706387795 kvar=-0.0 Phases=1
New Generator.pv_load_p1rlv8184_2 conn=wye bus1=p1rlv8184.2 kV=0.12 model=7 kW=0.8160680773386048 kvar=-0.0 Phases=1
New Generator.pv_load_p1rlv8187_1 conn=wye bus1=p1rlv8187.1 kV=0.12 model=7 kW=0.41179197501866416 kvar=-0.0 Phases=1
New Generator.pv_load_p1rlv8190_1 conn=wye bus1=p1rlv8190.1 kV=0.12 model=7 kW=0.39676323536914704 kvar=-0.0 Phases=1
New Generator.pv_load_p1rlv8191_1 conn=wye bus1=p1rlv8191.1 kV=0.12 model=7 kW=0.3005777987382725 kvar=-0.0 Phases=1
New Generator.pv_load_p1rlv8193_1 conn=wye bus1=p1rlv8193.1 kV=0.12 model=7 kW=0.7168783956517918 kvar=-0.0 Phases=1
New Generator.pv_load_p1rlv8194_1 conn=wye bus1=p1rlv8194.1 kV=0.12 model=7 kW=0.8566471772662659 kvar=-0.0 Phases=1
New Generator.pv_load_p1rlv8197_2 conn=wye bus1=p1rlv8197.2 kV=0.12 model=7 kW=0.5500578826681867 kvar=-0.0 Phases=1
New Generator.pv_load_p1rlv8198_2 conn=wye bus1=p1rlv8198.2 kV=0.12 model=7 kW=0.329132404072355 kvar=-0.0 Phases=1
New Generator.pv_load_p1rlv8200_2 conn=wye bus1=p1rlv8200.2 kV=0.12 model=7 kW=0.3471668916517756 kvar=-0.0 Phases=1
New Generator.pv_load_p1rlv8202_2 conn=wye bus1=p1rlv8202.2 kV=0.12 model=7 kW=0.5605780004228488 kvar=-0.0 Phases=1
New Generator.pv_load_p1rlv8205_2 conn=wye bus1=p1rlv8205.2 kV=0.12 model=7 kW=0.3652013792311961 kvar=-0.0 Phases=1
New Generator.pv_load_p1rlv8207_1 conn=wye bus1=p1rlv8207.1 kV=0.12 model=7 kW=0.2825433111588519 kvar=-0.0 Phases=1
New Generator.pv_load_p1rlv8207_2 conn=wye bus1=p1rlv8207.2 kV=0.12 model=7 kW=0.2825433111588519 kvar=-0.0 Phases=1
New Generator.pv_load_p1rlv8209_2 conn=wye bus1=p1rlv8209.2 kV=0.12 model=7 kW=0.5305205211238144 kvar=-0.0 Phases=1
New Generator.pv_load_p1rlv8218_2 conn=wye bus1=p1rlv8218.2 kV=0.12 model=7 kW=0.23294847031544538 kvar=-0.0 Phases=1
New Generator.pv_load_p1rlv8220_1 conn=wye bus1=p1rlv8220.1 kV=0.12 model=7 kW=0.36670425319614786 kvar=-0.0 Phases=1
New Generator.pv_load_p1rlv8221_1 conn=wye bus1=p1rlv8221.1 kV=0.12 model=7 kW=0.28404618512380364 kvar=-0.0 Phases=1
New Generator.pv_load_p1rlv8221_2 conn=wye bus1=p1rlv8221.2 kV=0.12 model=7 kW=0.28404618512380364 kvar=-0.0 Phases=1
New Generator.pv_load_p1rlv8224_1 conn=wye bus1=p1rlv8224.1 kV=0.12 model=7 kW=0.5215017744601392 kvar=-0.0 Phases=1
New Generator.pv_load_p1rlv8226_2 conn=wye bus1=p1rlv8226.2 kV=0.12 model=7 kW=0.21040385796720473 kvar=-0.0 Phases=1
New Generator.pv_load_p1rlv8227_2 conn=wye bus1=p1rlv8227.2 kV=0.12 model=7 kW=0.39676323536914704 kvar=-0.0 Phases=1
New Generator.pv_load_p1rlv8239_1 conn=wye bus1=p1rlv8239.1 kV=0.12 model=7 kW=0.18936362245788077 kvar=-0.0 Phases=1
New Generator.pv_load_p1rlv8239_2 conn=wye bus1=p1rlv8239.2 kV=0.12 model=7 kW=0.18936362245788077 kvar=-0.0 Phases=1
New Generator.pv_load_p1rlv8242_1 conn=wye bus1=p1rlv8242.1 kV=0.12 model=7 kW=0.21190673193215645 kvar=-0.0 Phases=1
New Generator.pv_load_p1rlv8243_1 conn=wye bus1=p1rlv8243.1 kV=0.12 model=7 kW=0.501964412915767 kvar=-0.0 Phases=1
New Generator.pv_load_p1rlv8244_1 conn=wye bus1=p1rlv8244.1 kV=0.12 model=7 kW=0.49745579102091175 kvar=-0.0 Phases=1
New Generator.pv_load_p1rlv8244_2 conn=wye bus1=p1rlv8244.2 kV=0.12 model=7 kW=0.49745579102091175 kvar=-0.0 Phases=1
New Generator.pv_load_p1rlv8248_1 conn=wye bus1=p1rlv8248.1 kV=0.12 model=7 kW=0.41179197501866416 kvar=-0.0 Phases=1
New Generator.pv_load_p1rlv8249_1 conn=wye bus1=p1rlv8249.1 kV=0.12 model=7 kW=0.48843854723120156 kvar=-0.0 Phases=1
New Generator.pv_load_p1rlv8249_2 conn=wye bus1=p1rlv8249.2 kV=0.12 model=7 kW=0.48843854723120156 kvar=-0.0 Phases=1
New Generator.pv_load_p1rlv8251_2 conn=wye bus1=p1rlv8251.2 kV=0.12 model=7 kW=0.20739811003730133 kvar=-0.0 Phases=1
New Generator.pv_load_p1rlv8252_1 conn=wye bus1=p1rlv8252.1 kV=0.12 model=7 kW=0.5245075223900426 kvar=-0.0 Phases=1
New Generator.pv_load_p1rlv8254_1 conn=wye bus1=p1rlv8254.1 kV=0.12 model=7 kW=0.33213815200225844 kvar=-0.0 Phases=1
New Generator.pv_load_p1rlv8255_1 conn=wye bus1=p1rlv8255.1 kV=0.12 model=7 kW=0.19687799228263936 kvar=-0.0 Phases=1
New Generator.pv_load_p1rlv8256_1 conn=wye bus1=p1rlv8256.1 kV=0.12 model=7 kW=0.29757205080836907 kvar=-0.0 Phases=1
New Generator.pv_load_p1rlv8442_1 conn=wye bus1=p1rlv8442.1 kV=0.12 model=7 kW=0.2600002016845762 kvar=-0.0 Phases=1
New Generator.pv_load_p1rlv8443_1 conn=wye bus1=p1rlv8443.1 kV=0.12 model=7 kW=0.20288948814244617 kvar=-0.0 Phases=1
New Generator.pv_load_p1rlv8445_2 conn=wye bus1=p1rlv8445.2 kV=0.12 model=7 kW=0.24346858807010738 kvar=-0.0 Phases=1
New Generator.pv_load_p1rlv8446_2 conn=wye bus1=p1rlv8446.2 kV=0.12 model=7 kW=0.1352600094322226 kvar=-0.0 Phases=1
New Generator.pv_load_p1rlv8454_1 conn=wye bus1=p1rlv8454.1 kV=0.12 model=7 kW=0.24948008392991425 kvar=-0.0 Phases=1
New Generator.pv_load_p1rlv8457_1 conn=wye bus1=p1rlv8457.1 kV=0.12 model=7 kW=0.25699445375467284 kvar=-0.0 Phases=1
New Generator.pv_load_p1rlv8457_2 conn=wye bus1=p1rlv8457.2 kV=0.12 model=7 kW=0.25699445375467284 kvar=-0.0 Phases=1
New Generator.pv_load_p1rlv8463_1 conn=wye bus1=p1rlv8463.1 kV=0.12 model=7 kW=1.2098255647778484 kvar=-0.0 Phases=1
New Generator.pv_load_p1rlv8468_1 conn=wye bus1=p1rlv8468.1 kV=0.12 model=7 kW=0.2825433111588519 kvar=-0.0 Phases=1
New Generator.pv_load_p1rlv8475_1 conn=wye bus1=p1rlv8475.1 kV=0.12 model=7 kW=0.33213815200225844 kvar=-0.0 Phases=1
New Generator.pv_load_p1rlv8480_2 conn=wye bus1=p1rlv8480.2 kV=0.12 model=7 kW=0.12924851357241576 kvar=-0.0 Phases=1
New Generator.pv_load_p1rlv8485_1 conn=wye bus1=p1rlv8485.1 kV=0.12 model=7 kW=0.1923693703877842 kvar=-0.0 Phases=1
New Generator.pv_load_p1rlv8488_2 conn=wye bus1=p1rlv8488.2 kV=0.12 model=7 kW=0.17734063073826706 kvar=-0.0 Phases=1
New Generator.pv_load_p1rlv8492_1 conn=wye bus1=p1rlv8492.1 kV=0.12 model=7 kW=0.27502894133409334 kvar=-0.0 Phases=1
New Generator.pv_load_p1rlv8493_2 conn=wye bus1=p1rlv8493.2 kV=0.12 model=7 kW=0.4208092188083745 kvar=-0.0 Phases=1
New Generator.pv_load_p1rlv8495_2 conn=wye bus1=p1rlv8495.2 kV=0.12 model=7 kW=0.13976863132707776 kvar=-0.0 Phases=1
New Generator.pv_load_p1rlv8497_1 conn=wye bus1=p1rlv8497.1 kV=0.12 model=7 kW=0.21040385796720473 kvar=-0.0 Phases=1
New Generator.pv_load_p1rlv8499_2 conn=wye bus1=p1rlv8499.2 kV=0.12 model=7 kW=0.20288948814244617 kvar=-0.0 Phases=1
New Generator.pv_load_p1rlv8502_2 conn=wye bus1=p1rlv8502.2 kV=0.12 model=7 kW=0.35768700940643755 kvar=-0.0 Phases=1
New Generator.pv_load_p1rlv8509_2 conn=wye bus1=p1rlv8509.2 kV=0.12 model=7 kW=1.7418459541186848 kvar=-0.0 Phases=1
New Generator.pv_load_p1rlv8514_1 conn=wye bus1=p1rlv8514.1 kV=0.12 model=7 kW=0.3306352780373067 kvar=-0.0 Phases=1
New Generator.pv_load_p1rlv8516_2 conn=wye bus1=p1rlv8516.2 kV=0.12 model=7 kW=0.17884350470321878 kvar=-0.0 Phases=1
New Generator.pv_load_p1rlv8519_2 conn=wye bus1=p1rlv8519.2 kV=0.12 model=7 kW=0.13375713546727092 kvar=-0.0 Phases=1
New Generator.pv_load_p1rlv8524_1 conn=wye bus1=p1rlv8524.1 kV=0.12 model=7 kW=0.1563003952289431 kvar=-0.0 Phases=1
New Generator.pv_load_p1rlv8525_1 conn=wye bus1=p1rlv8525.1 kV=0.12 model=7 kW=0.4523695720723605 kvar=-0.0 Phases=1
New Generator.pv_load_p1rlv8525_2 conn=wye bus1=p1rlv8525.2 kV=0.12 model=7 kW=0.4523695720723605 kvar=-0.0 Phases=1
New Generator.pv_load_p1rlv8526_2 conn=wye bus1=p1rlv8526.2 kV=0.12 model=7 kW=0.2765318152990451 kvar=-0.0 Phases=1
New Generator.pv_load_p1rlv8527_1 conn=wye bus1=p1rlv8527.1 kV=0.12 model=7 kW=0.1563003952289431 kvar=-0.0 Phases=1
New Generator.pv_load_p1rlv8528_2 conn=wye bus1=p1rlv8528.2 kV=0.12 model=7 kW=0.22242684968681845 kvar=-0.0 Phases=1
New Generator.pv_load_p1rlv8532_1 conn=wye bus1=p1rlv8532.1 kV=0.12 model=7 kW=0.3471668916517756 kvar=-0.0 Phases=1
New Generator.pv_load_p1rlv8532_2 conn=wye bus1=p1rlv8532.2 kV=0.12 model=7 kW=0.3471668916517756 kvar=-0.0 Phases=1
New Generator.pv_load_p1rlv8533_2 conn=wye bus1=p1rlv8533.2 kV=0.12 model=7 kW=0.3020806727032242 kvar=-0.0 Phases=1
New Generator.pv_load_p1rlv8535_2 conn=wye bus1=p1rlv8535.2 kV=0.12 model=7 kW=0.3727157490559547 kvar=-0.0 Phases=1
New Generator.pv_load_p1rlv8537_2 conn=wye bus1=p1rlv8537.2 kV=0.12 model=7 kW=0.3441611437218722 kvar=-0.0 Phases=1
New Generator.pv_load_p1rlv8539_1 conn=wye bus1=p1rlv8539.1 kV=0.12 model=7 kW=0.5530636305980902 kvar=-0.0 Phases=1
New Generator.pv_load_p1rlv8546_1 conn=wye bus1=p1rlv8546.1 kV=0.12 model=7 kW=0.25248583185981766 kvar=-0.0 Phases=1
New Generator.pv_load_p1rlv8547_2 conn=wye bus1=p1rlv8547.2 kV=0.12 model=7 kW=0.2164153538270116 kvar=-0.0 Phases=1
New Generator.pv_load_p1rlv8549_1 conn=wye bus1=p1rlv8549.1 kV=0.12 model=7 kW=0.24196571410515566 kvar=-0.0 Phases=1
New Generator.pv_load_p1rlv8550_1 conn=wye bus1=p1rlv8550.1 kV=0.12 model=7 kW=0.3471668916517756 kvar=-0.0 Phases=1
New Generator.pv_load_p1rlv8555_2 conn=wye bus1=p1rlv8555.2 kV=0.12 model=7 kW=0.35017263958167905 kvar=-0.0 Phases=1
New Generator.pv_load_p1rlv8560_1 conn=wye bus1=p1rlv8560.1 kV=0.12 model=7 kW=0.22994272238554195 kvar=-0.0 Phases=1
New Generator.pv_load_p1rlv8564_1 conn=wye bus1=p1rlv8564.1 kV=0.12 model=7 kW=0.3261266561424516 kvar=-0.0 Phases=1
New Generator.pv_load_p1rlv8568_1 conn=wye bus1=p1rlv8568.1 kV=0.12 model=7 kW=0.32011516028264475 kvar=-0.0 Phases=1
New Generator.pv_load_p1rlv8568_2 conn=wye bus1=p1rlv8568.2 kV=0.12 model=7 kW=0.32011516028264475 kvar=-0.0 Phases=1
New Generator.pv_load_p1rlv8570_1 conn=wye bus1=p1rlv8570.1 kV=0.12 model=7 kW=0.3261266561424516 kvar=-0.0 Phases=1