New Load.motor_load_p6ulv6288_1 conn=wye bus1=p6ulv6288.1 kV=0.12 kW=1.1683204275090884 kvar=0.2336640855018177 Phases=1 Vminpu=0.0 Vmaxpu=1.2 model=1
New Load.motor_load_p6ulv6288_2 conn=wye bus1=p6ulv6288.2 kV=0.12 kW=1.1224391275939438 kvar=0.22448782551878876 Phases=1 Vminpu=0.0 Vmaxpu=1.2 model=1
New Load.motor_load_p6ulv7112_2 conn=wye bus1=p6ulv7112.2 kV=0.12 kW=1.2316870499771704 kvar=0.24633740999543408 Phases=1 Vminpu=0.0 Vmaxpu=1.2 model=1
New Load.motor_load_p6ulv7114 conn=wye bus1=p6ulv7114.1.2.3 kV=0.48 kW=1.0961106158432274 kvar=0.2192221231686455 Phases=3 Vminpu=0.0 Vmaxpu=1.2 model=1
New Load.motor_load_p6ulv8118 conn=wye bus1=p6ulv8118.1.2.3 kV=0.48 kW=1.157932672560075 kvar=0.231586534512015 Phases=3 Vminpu=0.0 Vmaxpu=1.2 model=1
New Load.motor_load_p6ulv8120 conn=wye bus1=p6ulv8120.1.2.3 kV=0.48 kW=1.1452782093199012 kvar=0.22905564186398025 Phases=3 Vminpu=0.0 Vmaxpu=1.2 model=1
New Load.motor_load_p6ulv8122_1 conn=wye bus1=p6ulv8122.1 kV=0.12 kW=1.115173421151389 kvar=0.22303468423027784 Phases=1 Vminpu=0.0 Vmaxpu=1.2 model=1
New Load.motor_load_p6ulv8124_1 conn=wye bus1=p6ulv8124.1 kV=0.12 kW=1.0992096243456255 kvar=0.21984192486912513 Phases=1 Vminpu=0.0 Vmaxpu=1.2 model=1
New Load.motor_load_p6ulv8125_2 conn=wye bus1=p6ulv8125.2 kV=0.12 kW=1.2428145407822613 kvar=0.24856290815645227 Phases=1 Vminpu=0.0 Vmaxpu=1.2 model=1
New Load.motor_load_p6ulv8127_1 conn=wye bus1=p6ulv8127.1 kV=0.12 kW=1.1727065451149714 kvar=0.2345413090229943 Phases=1 Vminpu=0.0 Vmaxpu=1.2 model=1
New Load.motor_load_p6ulv8129_1 conn=wye bus1=p6ulv8129.1 kV=0.12 kW=1.0647294297180054 kvar=0.2129458859436011 Phases=1 Vminpu=0.0 Vmaxpu=1.2 model=1
New Load.motor_load_p6ulv8130_2 conn=wye bus1=p6ulv8130.2 kV=0.12 kW=1.2195058920492254 kvar=0.2439011784098451 Phases=1 Vminpu=0.0 Vmaxpu=1.2 model=1
New Load.motor_load_p6ulv8131_1 conn=wye bus1=p6ulv8131.1 kV=0.12 kW=1.102040660918253 kvar=0.2204081321836506 Phases=1 Vminpu=0.0 Vmaxpu=1.2 model=1
New Load.motor_load_p6ulv8135_1 conn=wye bus1=p6ulv8135.1 kV=0.12 kW=1.249275259023157 kvar=0.2498550518046314 Phases=1 Vminpu=0.0 Vmaxpu=1.2 model=1
New Load.motor_load_p6ulv8135_2 conn=wye bus1=p6ulv8135.2 kV=0.12 kW=1.103849400507124 kvar=0.22076988010142481 Phases=1 Vminpu=0.0 Vmaxpu=1.2 model=1
New Load.motor_load_p6ulv8136_2 conn=wye bus1=p6ulv8136.2 kV=0.12 kW=1.0629162739129066 kvar=0.21258325478258133 Phases=1 Vminpu=0.0 Vmaxpu=1.2 model=1
New Load.motor_load_p6ulv8138_1 conn=wye bus1=p6ulv8138.1 kV=0.12 kW=1.13093502859365 kvar=0.22618700571873 Phases=1 Vminpu=0.0 Vmaxpu=1.2 model=1
New Load.motor_load_p6ulv8140_1 conn=wye bus1=p6ulv8140.1 kV=0.12 kW=1.1746846999553588 kvar=0.2349369399910718 Phases=1 Vminpu=0.0 Vmaxpu=1.2 model=1
New Load.motor_load_p6ulv8141_1 conn=wye bus1=p6ulv8141.1 kV=0.12 kW=1.0721548098690399 kvar=0.21443096197380798 Phases=1 Vminpu=0.0 Vmaxpu=1.2 model=1
New Load.motor_load_p6ulv8142 conn=wye bus1=p6ulv8142.1.2.3 kV=0.48 kW=1.0910878838798583 kvar=0.21821757677597167 Phases=3 Vminpu=0.0 Vmaxpu=1.2 model=1
New Load.motor_load_p6ulv8144_1 conn=wye bus1=p6ulv8144.1 kV=0.12 kW=1.165495102994464 kvar=0.23309902059889281 Phases=1 Vminpu=0.0 Vmaxpu=1.2 model=1
New Load.motor_load_p6ulv8146_2 conn=wye bus1=p6ulv8146.2 kV=0.12 kW=1.228934445385096 kvar=0.24578688907701923 Phases=1 Vminpu=0.0 Vmaxpu=1.2 model=1
New Load.motor_load_p6ulv8149_1 conn=wye bus1=p6ulv8149.1 kV=0.12 kW=1.2182220834705981 kvar=0.24364441669411963 Phases=1 Vminpu=0.0 Vmaxpu=1.2 model=1
New Load.motor_load_p6ulv8149_2 conn=wye bus1=p6ulv8149.2 kV=0.12 kW=1.21521833638302 kvar=0.243043667276604 Phases=1 Vminpu=0.0 Vmaxpu=1.2 model=1
New Load.motor_load_p6ulv8151_1 conn=wye bus1=p6ulv8151.1 kV=0.12 kW=1.1148737255737782 kvar=0.22297474511475565 Phases=1 Vminpu=0.0 Vmaxpu=1.2 model=1
New Load.motor_load_p6ulv8153_1 conn=wye bus1=p6ulv8153.1 kV=0.12 kW=1.2002488565477596 kvar=0.24004977130955193 Phases=1 Vminpu=0.0 Vmaxpu=1.2 model=1
New Load.motor_load_p6ulv8153_2 conn=wye bus1=p6ulv8153.2 kV=0.12 kW=1.1474259333637733 kvar=0.22948518667275467 Phases=1 Vminpu=0.0 Vmaxpu=1.2 model=1
New Load.motor_load_p6ulv8155_1 conn=wye bus1=p6ulv8155.1 kV=0.12 kW=1.1963017348925635 kvar=0.23926034697851273 Phases=1 Vminpu=0.0 Vmaxpu=1.2 model=1
New Load.motor_load_p6ulv8158_1 conn=wye bus1=p6ulv8157.1 kV=0.12 kW=1.0843101862395466 kvar=0.2168620372479093 Phases=1 Vminpu=0.0 Vmaxpu=1.2 model=1
New Load.motor_load_p6ulv8158_2 conn=wye bus1=p6ulv8157.2 kV=0.12 kW=1.2326384721775636 kvar=0.24652769443551273 Phases=1 Vminpu=0.0 Vmaxpu=1.2 model=1
New Load.motor_load_p6ulv8160_1 conn=wye bus1=p6ulv8159.1 kV=0.12 kW=1.2263381191148417 kvar=0.24526762382296835 Phases=1 Vminpu=0.0 Vmaxpu=1.2 model=1
New Load.motor_load_p6ulv8160_2 conn=wye bus1=p6ulv8159.2 kV=0.12 kW=1.124901319374784 kvar=0.22498026387495684 Phases=1 Vminpu=0.0 Vmaxpu=1.2 model=1
New Load.motor_load_p6ulv8161_1 conn=wye bus1=p6ulv8161.1 kV=0.12 kW=1.163495465059999 kvar=0.23269909301199979 Phases=1 Vminpu=0.0 Vmaxpu=1.2 model=1
New Load.motor_load_p6ulv8164_1 conn=wye bus1=p6ulv8164.1 kV=0.12 kW=1.0530247285593648 kvar=0.21060494571187297 Phases=1 Vminpu=0.0 Vmaxpu=1.2 model=1
New Load.motor_load_p6ulv8165_2 conn=wye bus1=p6ulv8165.2 kV=0.12 kW=1.1143028491719447 kvar=0.22286056983438896 Phases=1 Vminpu=0.0 Vmaxpu=1.2 model=1
New Load.motor_load_p6ulv8170_2 conn=wye bus1=p6ulv8170.2 kV=0.12 kW=1.2015552497580202 kvar=0.24031104995160404 Phases=1 Vminpu=0.0 Vmaxpu=1.2 model=1
New Load.motor_load_p6ulv8172_1 conn=wye bus1=p6ulv8172.1 kV=0.12 kW=1.2380686955557916 kvar=0.24761373911115833 Phases=1 Vminpu=0.0 Vmaxpu=1.2 model=1
New Load.motor_load_p6ulv8172_2 conn=wye bus1=p6ulv8172.2 kV=0.12 kW=1.238393894887092 kvar=0.2476787789774184 Phases=1 Vminpu=0.0 Vmaxpu=1.2 model=1
New Load.motor_load_p6ulv8173_1 conn=wye bus1=p6ulv8173.1 kV=0.12 kW=1.0927858548647045 kvar=0.21855717097294092 Phases=1 Vminpu=0.0 Vmaxpu=1.2 model=1
New Load.motor_load_p6ulv8175_2 conn=wye bus1=p6ulv8175.2 kV=0.12 kW=1.1880479286114765 kvar=0.2376095857222953 Phases=1 Vminpu=0.0 Vmaxpu=1.2 model=1
New Load.motor_load_p6ulv8176_1 conn=wye bus1=p6ulv8176.1 kV=0.12 kW=1.2495906502069993 kvar=0.24991813004139987 Phases=1 Vminpu=0.0 Vmaxpu=1.2 model=1
New Load.motor_load_p6ulv8178_1 conn=wye bus1=p6ulv8178.1 kV=0.12 kW=1.1232370518773347 kvar=0.22464741037546695 Phases=1 Vminpu=0.0 Vmaxpu=1.2 model=1
New Load.motor_load_p6ulv8181_1 conn=wye bus1=p6ulv8181.1 kV=0.12 kW=1.226682168312162 kvar=0.2453364336624324 Phases=1 Vminpu=0.0 Vmaxpu=1.2 model=1
New Load.motor_load_p6ulv8182_1 conn=wye bus1=p6ulv8182.1 kV=0.12 kW=1.2421606620961525 kvar=0.2484321324192305 Phases=1 Vminpu=0.0 Vmaxpu=1.2 model=1
New Load.motor_load_p6ulv8184_2 conn=wye bus1=p6ulv8184.2 kV=0.12 kW=1.2226664226776691 kvar=0.24453328453553383 Phases=1 Vminpu=0.0 Vmaxpu=1.2 model=1
New Load.motor_load_p6ulv8185_1 conn=wye bus1=p6ulv8185.1 kV=0.12 kW=1.1743039134522035 kvar=0.23486078269044072 Phases=1 Vminpu=0.0 Vmaxpu=1.2 model=1
New Load.motor_load_p6ulv8185_2 conn=wye bus1=p6ulv8185.2 kV=0.12 kW=1.0641314230091226 kvar=0.2128262846018245 Phases=1 Vminpu=0.0 Vmaxpu=1.2 model=1
New Load.motor_load_p6ulv8190_2 conn=wye bus1=p6ulv8190.2 kV=0.12 kW=1.240883426858342 kvar=0.2481766853716684 Phases=1 Vminpu=0.0 Vmaxpu=1.2 model=1
New Load.motor_load_p6ulv8192_1 conn=wye bus1=p6ulv8191.1 kV=0.12 kW=1.170935954500531 kvar=0.2341871909001062 Phases=1 Vminpu=0.0 Vmaxpu=1.2 model=1
New Load.motor_load_p6ulv8193_2 conn=wye bus1=p6ulv8193.2 kV=0.12 kW=1.2545351710526818 kvar=0.25090703421053634 Phases=1 Vminpu=0.0 Vmaxpu=1.2 model=1
New Load.motor_load_p6ulv8194_2 conn=wye bus1=p6ulv8194.2 kV=0.12 kW=1.1977147702655793 kvar=0.23954295405311588 Phases=1 Vminpu=0.0 Vmaxpu=1.2 model=1
New Load.motor_load_p6ulv11964_2 conn=wye bus1=p6ulv11964.2 kV=0.12 kW=1.113320382929929 kvar=0.2226640765859858 Phases=1 Vminpu=0.0 Vmaxpu=1.2 model=1
New Load.motor_load_p6ulv11965_2 conn=wye bus1=p6ulv11965.2 kV=0.12 kW=1.1065849407395194 kvar=0.2213169881479039 Phases=1 Vminpu=0.0 Vmaxpu=1.2 model=1
New Load.motor_load_p6ulv13099_2 conn=wye bus1=p6ulv13099.2 kV=0.12 kW=1.1922444450145315 kvar=0.2384488890029063 Phases=1 Vminpu=0.0 Vmaxpu=1.2 model=1
New Load.motor_load_p6ulv13101_2 conn=wye bus1=p6ulv13101.2 kV=0.12 kW=1.0785641346070918 kvar=0.21571282692141835 Phases=1 Vminpu=0.0 Vmaxpu=1.2 model=1
New Load.motor_load_p6ulv13102_1 conn=wye bus1=p6ulv13102.1 kV=0.12 kW=1.0778285554565235 kvar=0.2155657110913047 Phases=1 Vminpu=0.0 Vmaxpu=1.2 model=1
New Load.motor_load_p6ulv13102_2 conn=wye bus1=p6ulv13102.2 kV=0.12 kW=1.1967479688724907 kvar=0.23934959377449816 Phases=1 Vminpu=0.0 Vmaxpu=1.2 model=1
New Load.motor_load_p6ulv13105_2 conn=wye bus1=p6ulv13105.2 kV=0.12 kW=1.1384702006058143 kvar=0.22769404012116287 Phases=1 Vminpu=0.0 Vmaxpu=1.2 model=1
New Load.motor_load_p6ulv13106_2 conn=wye bus1=p6ulv13106.2 kV=0.12 kW=1.2185974009007805 kvar=0.2437194801801561 Phases=1 Vminpu=0.0 Vmaxpu=1.2 model=1
New Load.motor_load_p6ulv13108_1 conn=wye bus1=p6ulv13108.1 kV=0.12 kW=1.2390056691831253 kvar=0.24780113383662505 Phases=1 Vminpu=0.0 Vmaxpu=1.2 model=1
New Load.motor_load_p6ulv13121_1 conn=wye bus1=p6ulv13121.1 kV=0.12 kW=1.1783024720764892 kvar=0.23566049441529785 Phases=1 Vminpu=0.0 Vmaxpu=1.2 model=1
New Load.motor_load_p6ulv13122_1 conn=wye bus1=p6ulv13122.1 kV=0.12 kW=1.261375047377716 kvar=0.2522750094755432 Phases=1 Vminpu=0.0 Vmaxpu=1.2 model=1
New Load.motor_load_p6ulv13123_1 conn=wye bus1=p6ulv13123.1 kV=0.12 kW=1.2008756882601261 kvar=0.24017513765202525 Phases=1 Vminpu=0.0 Vmaxpu=1.2 model=1
New Load.motor_load_p6ulv13123_2 conn=wye bus1=p6ulv13123.2 kV=0.12 kW=1.0907555367747668 kvar=0.21815110735495336 Phases=1 Vminpu=0.0 Vmaxpu=1.2 model=1
New Load.motor_load_p6ulv13141_1 conn=wye bus1=p6ulv13141.1 kV=0.12 kW=1.185311506872458 kvar=0.2370623013744916 Phases=1 Vminpu=0.0 Vmaxpu=1.2 model=1
New Load.motor_load_p6ulv13142_1 conn=wye bus1=p6ulv13142.1 kV=0.12 kW=1.1360412118409131 kvar=0.22720824236818263 Phases=1 Vminpu=0.0 Vmaxpu=1.2 model=1
New Load.motor_load_p6ulv13143_1 conn=wye bus1=p6ulv13143.1 kV=0.12 kW=1.1792948780744026 kvar=0.23585897561488053 Phases=1 Vminpu=0.0 Vmaxpu=1.2 model=1
New Load.motor_load_p6ulv13146_1 conn=wye bus1=p6ulv13146.1 kV=0.12 kW=1.1294416649946666 kvar=0.22588833299893332 Phases=1 Vminpu=0.0 Vmaxpu=1.2 model=1
New Load.motor_load_p6ulv13147_1 conn=wye bus1=p6ulv13147.1 kV=0.12 kW=1.082134871941635 kvar=0.21642697438832703 Phases=1 Vminpu=0.0 Vmaxpu=1.2 model=1
New Load.motor_load_p6ulv13148_1 conn=wye bus1=p6ulv13148.1 kV=0.12 kW=1.206125799094841 kvar=0.24122515981896822 Phases=1 Vminpu=0.0 Vmaxpu=1.2 model=1
New Load.motor_load_p6ulv13148_2 conn=wye bus1=p6ulv13148.2 kV=0.12 kW=1.1181365870784563 kvar=0.22362731741569128 Phases=1 Vminpu=0.0 Vmaxpu=1.2 model=1
New Load.motor_load_p6ulv13149_1 conn=wye bus1=p6ulv13149.1 kV=0.12 kW=1.1023894858142735 kvar=0.2204778971628547 Phases=1 Vminpu=0.0 Vmaxpu=1.2 model=1
New Load.motor_load_p6ulv13150_2 conn=wye bus1=p6ulv13150.2 kV=0.12 kW=1.144561215386214 kvar=0.22891224307724278 Phases=1 Vminpu=0.0 Vmaxpu=1.2 model=1
New Load.motor_load_p6ulv13152_1 conn=wye bus1=p6ulv13152.1 kV=0.12 kW=1.2398892983123044 kvar=0.2479778596624609 Phases=1 Vminpu=0.0 Vmaxpu=1.2 model=1
New Load.motor_load_p6ulv13165_1 conn=wye bus1=p6ulv13165.1 kV=0.12 kW=1.1276005944368157 kvar=0.22552011888736315 Phases=1 Vminpu=0.0 Vmaxpu=1.2 model=1
New Load.motor_load_p6ulv13168_2 conn=wye bus1=p6ulv13168.2 kV=0.12 kW=1.0600725229098542 kvar=0.21201450458197085 Phases=1 Vminpu=0.0 Vmaxpu=1.2 model=1
New Load.motor_load_p6ulv13188_2 conn=wye bus1=p6ulv13188.2 kV=0.12 kW=1.2156426172902948 kvar=0.24312852345805896 Phases=1 Vminpu=0.0 Vmaxpu=1.2 model=1
New Load.motor_load_p6ulv13191_2 conn=wye bus1=p6ulv13191.2 kV=0.12 kW=1.0554661986118925 kvar=0.2110932397223785 Phases=1 Vminpu=0.0 Vmaxpu=1.2 model=1
New Load.motor_load_p6ulv13193_2 conn=wye bus1=p6ulv13193.2 kV=0.12 kW=1.2159984720507877 kvar=0.24319969441015754 Phases=1 Vminpu=0.0 Vmaxpu=1.2 model=1
New Load.motor_load_p6ulv13194_1 conn=wye bus1=p6ulv13193.1 kV=0.12 kW=1.1808359657589214 kvar=0.23616719315178428 Phases=1 Vminpu=0.0 Vmaxpu=1.2 model=1
New Load.motor_load_p6ulv13198_1 conn=wye bus1=p6ulv13198.1 kV=0.12 kW=1.1358713324293503 kvar=0.22717426648587008 Phases=1 Vminpu=0.0 Vmaxpu=1.2 model=1
New Load.motor_load_p6ulv13199_2 conn=wye bus1=p6ulv13199.2 kV=0.12 kW=1.2547741688926313 kvar=0.2509548337785263 Phases=1 Vminpu=0.0 Vmaxpu=1.2 model=1
New Load.motor_load_p6ulv13201_1 conn=wye bus1=p6ulv13201.1 kV=0.12 kW=1.0592039785645435 kvar=0.2118407957129087 Phases=1 Vminpu=0.0 Vmaxpu=1.2 model=1
New Load.motor_load_p6ulv13208_2 conn=wye bus1=p6ulv13208.2 kV=0.12 kW=1.0955234003620942 kvar=0.21910468007241884 Phases=1 Vminpu=0.0 Vmaxpu=1.2 model=1
New Load.motor_load_p6ulv13209_2 conn=wye bus1=p6ulv13209.2 kV=0.12 kW=1.1189142842203306 kvar=0.22378285684406612 Phases=1 Vminpu=0.0 Vmaxpu=1.2 model=1
New Load.motor_load_p6ulv13211_1 conn=wye bus1=p6ulv13211.1 kV=0.12 kW=1.128102816295131 kvar=0.2256205632590262 Phases=1 Vminpu=0.0 Vmaxpu=1.2 model=1
New Load.motor_load_p6ulv13212_1 conn=wye bus1=p6ulv13212.1 kV=0.12 kW=1.2023328588720124 kvar=0.24046657177440248 Phases=1 Vminpu=0.0 Vmaxpu=1.2 model=1
New Load.motor_load_p6ulv13213_1 conn=wye bus1=p6ulv13213.1 kV=0.12 kW=1.0758936509424284 kvar=0.21517873018848568 Phases=1 Vminpu=0.0 Vmaxpu=1.2 model=1
New Load.motor_load_p6ulv13213_2 conn=wye bus1=p6ulv13213.2 kV=0.12 kW=1.1648905730914674 kvar=0.23297811461829349 Phases=1 Vminpu=0.0 Vmaxpu=1.2 model=1
New Load.motor_load_p6ulv13214_1 conn=wye bus1=p6ulv13214.1 kV=0.12 kW=1.0811474188600756 kvar=0.21622948377201512 Phases=1 Vminpu=0.0 Vmaxpu=1.2 model=1
New Load.motor_load_p6ulv13219_1 conn=wye bus1=p6ulv13219.1 kV=0.12 kW=1.175483968102701 kvar=0.2350967936205402 Phases=1 Vminpu=0.0 Vmaxpu=1.2 model=1
New Load.motor_load_p6ulv13224_1 conn=wye bus1=p6ulv13224.1 kV=0.12 kW=1.210293049635577 kvar=0.24205860992711542 Phases=1 Vminpu=0.0 Vmaxpu=1.2 model=1
New Load.motor_load_p6ulv13227_2 conn=wye bus1=p6ulv13227.2 kV=0.12 kW=1.260130911616137 kvar=0.25202618232322743 Phases=1 Vminpu=0.0 Vmaxpu=1.2 model=1
New Load.motor_load_p6ulv13229_1 conn=wye bus1=p6ulv13229.1 kV=0.12 kW=1.2609665617411214 kvar=0.2521933123482243 Phases=1 Vminpu=0.0 Vmaxpu=1.2 model=1
New Load.motor_load_p6ulv13229_2 conn=wye bus1=p6ulv13229.2 kV=0.12 kW=1.0566634768138026 kvar=0.21133269536276053 Phases=1 Vminpu=0.0 Vmaxpu=1.2 model=1
New Load.motor_load_p6ulv13230_2 conn=wye bus1=p6ulv13230.2 kV=0.12 kW=1.1636268856819656 kvar=0.23272537713639313 Phases=1 Vminpu=0.0 Vmaxpu=1.2 model=1
New Load.motor_load_p6ulv13232_1 conn=wye bus1=p6ulv13232.1 kV=0.12 kW=1.1181675035124625 kvar=0.22363350070249252 Phases=1 Vminpu=0.0 Vmaxpu=1.2 model=1
New Load.motor_load_p6ulv13233_2 conn=wye bus1=p6ulv13233.2 kV=0.12 kW=1.2173495497922007 kvar=0.24346990995844014 Phases=1 Vminpu=0.0 Vmaxpu=1.2 model=1
New Load.motor_load_p6ulv13235_1 conn=wye bus1=p6ulv13235.1 kV=0.12 kW=1.120817156474577 kvar=0.22416343129491542 Phases=1 Vminpu=0.0 Vmaxpu=1.2 model=1
New Load.motor_load_p6ulv13236_1 conn=wye bus1=p6ulv13236.1 kV=0.12 kW=1.1662526679763807 kvar=0.23325053359527614 Phases=1 Vminpu=0.0 Vmaxpu=1.2 model=1
New Load.motor_load_p6ulv13236_2 conn=wye bus1=p6ulv13236.2 kV=0.12 kW=1.0561247677731922 kvar=0.21122495355463844 Phases=1 Vminpu=0.0 Vmaxpu=1.2 model=1
New Load.motor_load_p6ulv13239_1 conn=wye bus1=p6ulv13239.1 kV=0.12 kW=1.091207697826013 kvar=0.21824153956520262 Phases=1 Vminpu=0.0 Vmaxpu=1.2 model=1
New Load.motor_load_p6ulv13242_2 conn=wye bus1=p6ulv13242.2 kV=0.12 kW=1.154203763309557 kvar=0.2308407526619114 Phases=1 Vminpu=0.0 Vmaxpu=1.2 model=1
New Load.motor_load_p6ulv13243_1 conn=wye bus1=p6ulv13243.1 kV=0.12 kW=1.157701610874342 kvar=0.23154032217486842 Phases=1 Vminpu=0.0 Vmaxpu=1.2 model=1
New Load.motor_load_p6ulv13246_1 conn=wye bus1=p6ulv13246.1 kV=0.12 kW=1.184069866395175 kvar=0.236813973279035 Phases=1 Vminpu=0.0 Vmaxpu=1.2 model=1
New Load.motor_load_p6ulv13247_1 conn=wye bus1=p6ulv13247.1 kV=0.12 kW=1.1030919265057921 kvar=0.22061838530115843 Phases=1 Vminpu=0.0 Vmaxpu=1.2 model=1
New Load.motor_load_p6ulv13249_1 conn=wye bus1=p6ulv13249.1 kV=0.12 kW=1.1018782266646534 kvar=0.2203756453329307 Phases=1 Vminpu=0.0 Vmaxpu=1.2 model=1
New Load.motor_load_p6ulv13251_1 conn=wye bus1=p6ulv13251.1 kV=0.12 kW=1.127121462721243 kvar=0.2254242925442486 Phases=1 Vminpu=0.0 Vmaxpu=1.2 model=1
New Load.motor_load_p6ulv13251_2 conn=wye bus1=p6ulv13251.2 kV=0.12 kW=1.1379256252246932 kvar=0.22758512504493866 Phases=1 Vminpu=0.0 Vmaxpu=1.2 model=1
New Load.motor_load_p6ulv13252_1 conn=wye bus1=p6ulv13252.1 kV=0.12 kW=1.2225233026140199 kvar=0.24450466052280398 Phases=1 Vminpu=0.0 Vmaxpu=1.2 model=1
New Load.motor_load_p6ulv13253_2 conn=wye bus1=p6ulv13253.2 kV=0.12 kW=1.0655941836126548 kvar=0.21311883672253096 Phases=1 Vminpu=0.0 Vmaxpu=1.2 model=1
New Load.motor_load_p6ulv13255_1 conn=wye bus1=p6ulv13255.1 kV=0.12 kW=1.184452022613435 kvar=0.236890404522687 Phases=1 Vminpu=0.0 Vmaxpu=1.2 model=1
New Load.motor_load_p6ulv13256_2 conn=wye bus1=p6ulv13256.2 kV=0.12 kW=1.0901859194413073 kvar=0.21803718388826146 Phases=1 Vminpu=0.0 Vmaxpu=1.2 model=1
New Load.motor_load_p6ulv13257_2 conn=wye bus1=p6ulv13257.2 kV=0.12 kW=1.1643073694905592 kvar=0.23286147389811185 Phases=1 Vminpu=0.0 Vmaxpu=1.2 model=1
New Load.motor_load_p6ulv13261_1 conn=wye bus1=p6ulv13261.1 kV=0.12 kW=1.185977121730221 kvar=0.23719542434604424 Phases=1 Vminpu=0.0 Vmaxpu=1.2 model=1
New Load.motor_load_p6ulv13262_1 conn=wye bus1=p6ulv13262.1 kV=0.12 kW=1.0700868015393807 kvar=0.21401736030787616 Phases=1 Vminpu=0.0 Vmaxpu=1.2 model=1
New Load.motor_load_p6ulv13262_2 conn=wye bus1=p6ulv13262.2 kV=0.12 kW=1.1548780379164436 kvar=0.23097560758328872 Phases=1 Vminpu=0.0 Vmaxpu=1.2 model=1
New Load.motor_load_p6ulv13263_2 conn=wye bus1=p6ulv13263.2 kV=0.12 kW=1.0829708867018824 kvar=0.21659417734037648 Phases=1 Vminpu=0.0 Vmaxpu=1.2 model=1
New Load.motor_load_p6ulv13264_1 conn=wye bus1=p6ulv13264.1 kV=0.12 kW=1.2536509350111922 kvar=0.2507301870022384 Phases=1 Vminpu=0.0 Vmaxpu=1.2 model=1
New Load.motor_load_p6ulv13267_1 conn=wye bus1=p6ulv13267.1 kV=0.12 kW=1.1122485055747986 kvar=0.22244970111495974 Phases=1 Vminpu=0.0 Vmaxpu=1.2 model=1
New Load.motor_load_p6ulv13267_2 conn=wye bus1=p6ulv13267.2 kV=0.12 kW=1.2193455271730695 kvar=0.24386910543461393 Phases=1 Vminpu=0.0 Vmaxpu=1.2 model=1
New Load.motor_load_p6ulv13268_2 conn=wye bus1=p6ulv13268.2 kV=0.12 kW=1.0580202951367497 kvar=0.21160405902734994 Phases=1 Vminpu=0.0 Vmaxpu=1.2 model=1
New Load.motor_load_p6ulv13269_2 conn=wye bus1=p6ulv13269.2 kV=0.12 kW=1.1202591911591098 kvar=0.22405183823182195 Phases=1 Vminpu=0.0 Vmaxpu=1.2 model=1
New Load.motor_load_p6ulv13271_1 conn=wye bus1=p6ulv13271.1 kV=0.12 kW=1.1987274518788726 kvar=0.23974549037577453 Phases=1 Vminpu=0.0 Vmaxpu=1.2 model=1
New Load.motor_load_p6ulv13275_1 conn=wye bus1=p6ulv13275.1 kV=0.12 kW=1.21266311344844 kvar=0.242532622689688 Phases=1 Vminpu=0.0 Vmaxpu=1.2 model=1
New Load.motor_load_p6ulv13276_1 conn=wye bus1=p6ulv13276.1 kV=0.12 kW=1.1502388956869558 kvar=0.23004777913739116 Phases=1 Vminpu=0.0 Vmaxpu=1.2 model=1
New Load.motor_load_p6ulv13276_2 conn=wye bus1=p6ulv13276.2 kV=0.12 kW=1.1372131275934287 kvar=0.22744262551868577 Phases=1 Vminpu=0.0 Vmaxpu=1.2 model=1
New Load.motor_load_p6ulv13277_1 conn=wye bus1=p6ulv13277.1 kV=0.12 kW=1.1342986103168833 kvar=0.22685972206337668 Phases=1 Vminpu=0.0 Vmaxpu=1.2 model=1
New Load.motor_load_p6ulv13279_1 conn=wye bus1=p6ulv13279.1 kV=0.12 kW=1.109705525742957 kvar=0.22194110514859144 Phases=1 Vminpu=0.0 Vmaxpu=1.2 model=1
New Load.motor_load_p6ulv13280_2 conn=wye bus1=p6ulv13280.2 kV=0.12 kW=1.24291932968768 kvar=0.248583865937536 Phases=1 Vminpu=0.0 Vmaxpu=1.2 model=1
New Load.motor_load_p6ulv13281_1 conn=wye bus1=p6ulv13281.1 kV=0.12 kW=1.1871009720130528 kvar=0.23742019440261056 Phases=1 Vminpu=0.0 Vmaxpu=1.2 model=1
New Load.motor_load_p6ulv13281_2 conn=wye bus1=p6ulv13281.2 kV=0.12 kW=1.1873165819568605 kvar=0.2374633163913721 Phases=1 Vminpu=0.0 Vmaxpu=1.2 model=1
New Load.motor_load_p6ulv13283_1 conn=wye bus1=p6ulv13283.1 kV=0.12 kW=1.1777342940030011 kvar=0.23554685880060022 Phases=1 Vminpu=0.0 Vmaxpu=1.2 model=1
New Load.motor_load_p6ulv13284_2 conn=wye bus1=p6ulv13284.2 kV=0.12 kW=1.1031242159998569 kvar=0.2206248431999714 Phases=1 Vminpu=0.0 Vmaxpu=1.2 model=1
New Load.motor_load_p6ulv13287_1 conn=wye bus1=p6ulv13287.1 kV=0.12 kW=1.0918116801900934 kvar=0.2183623360380187 Phases=1 Vminpu=0.0 Vmaxpu=1.2 model=1
New Load.motor_load_p6ulv13289_2 conn=wye bus1=p6ulv13289.2 kV=0.12 kW=1.0907851869941378 kvar=0.21815703739882758 Phases=1 Vminpu=0.0 Vmaxpu=1.2 model=1
New Load.motor_load_p6ulv13291_1 conn=wye bus1=p6ulv13291.1 kV=0.12 kW=1.081361731317316 kvar=0.21627234626346323 Phases=1 Vminpu=0.0 Vmaxpu=1.2 model=1
New Load.motor_load_p6ulv13298_2 conn=wye bus1=p6ulv13298.2 kV=0.12 kW=1.0896585103367977 kvar=0.21793170206735957 Phases=1 Vminpu=0.0 Vmaxpu=1.2 model=1
New Load.motor_load_p6ulv13301_2 conn=wye bus1=p6ulv13301.2 kV=0.12 kW=1.1520309438391532 kvar=0.23040618876783064 Phases=1 Vminpu=0.0 Vmaxpu=1.2 model=1
New Load.motor_load_p6ulv13302_2 conn=wye bus1=p6ulv13302.2 kV=0.12 kW=1.1435022964423098 kvar=0.22870045928846197 Phases=1 Vminpu=0.0 Vmaxpu=1.2 model=1
New Load.motor_load_p6ulv13303_1 conn=wye bus1=p6ulv13303.1 kV=0.12 kW=1.2435154956188745 kvar=0.24870309912377492 Phases=1 Vminpu=0.0 Vmaxpu=1.2 model=1
New Load.motor_load_p6ulv13305_1 conn=wye bus1=p6ulv13305.1 kV=0.12 kW=1.1519801514145767 kvar=0.23039603028291533 Phases=1 Vminpu=0.0 Vmaxpu=1.2 model=1
New Load.motor_load_p6ulv13305_2 conn=wye bus1=p6ulv13305.2 kV=0.12 kW=1.1991539368263349 kvar=0.23983078736526697 Phases=1 Vminpu=0.0 Vmaxpu=1.2 model=1
New Load.motor_load_p6ulv13306_2 conn=wye bus1=p6ulv13306.2 kV=0.12 kW=1.175356345578427 kvar=0.23507126911568543 Phases=1 Vminpu=0.0 Vmaxpu=1.2 model=1
New Load.motor_load_p6ulv13307_1 conn=wye bus1=p6ulv13307.1 kV=0.12 kW=1.2515687394816806 kvar=0.25031374789633615 Phases=1 Vminpu=0.0 Vmaxpu=1.2 model=1
New Load.motor_load_p6ulv13308_1 conn=wye bus1=p6ulv13308.1 kV=0.12 kW=1.1659985822938834 kvar=0.23319971645877668 Phases=1 Vminpu=0.0 Vmaxpu=1.2 model=1
New Load.motor_load_p6ulv13309_1 conn=wye bus1=p6ulv13309.1 kV=0.12 kW=1.061041070175552 kvar=0.2122082140351104 Phases=1 Vminpu=0.0 Vmaxpu=1.2 model=1
New Load.motor_load_p6ulv13310_1 conn=wye bus1=p6ulv13310.1 kV=0.12 kW=1.0696628371437784 kvar=0.2139325674287557 Phases=1 Vminpu=0.0 Vmaxpu=1.2 model=1
New Load.motor_load_p6ulv13312_1 conn=wye bus1=p6ulv13312.1 kV=0.12 kW=1.2175447279415033 kvar=0.24350894558830066 Phases=1 Vminpu=0.0 Vmaxpu=1.2 model=1
New Load.motor_load_p6ulv13312_2 conn=wye bus1=p6ulv13312.2 kV=0.12 kW=1.0835212941910848 kvar=0.21670425883821698 Phases=1 Vminpu=0.0 Vmaxpu=1.2 model=1
New Load.motor_load_p6ulv13313_1 conn=wye bus1=p6ulv13313.1 kV=0.12 kW=1.114416612061498 kvar=0.2228833224122996 Phases=1 Vminpu=0.0 Vmaxpu=1.2 model=1
New Load.motor_load_p6ulv13314_2 conn=wye bus1=p6ulv13314.2 kV=0.12 kW=1.0526938415103186 kvar=0.21053876830206375 Phases=1 Vminpu=0.0 Vmaxpu=1.2 model=1
New Load.motor_load_p6ulv13318_2 conn=wye bus1=p6ulv13318.2 kV=0.12 kW=1.2246276478519205 kvar=0.2449255295703841 Phases=1 Vminpu=0.0 Vmaxpu=1.2 model=1
New Load.motor_load_p6ulv13321_2 conn=wye bus1=p6ulv13321.2 kV=0.12 kW=1.2057121437682943 kvar=0.24114242875365888 Phases=1 Vminpu=0.0 Vmaxpu=1.2 model=1
New Load.motor_load_p6ulv13322_1 conn=wye bus1=p6ulv13322.1 kV=0.12 kW=1.0739072209189504 kvar=0.21478144418379008 Phases=1 Vminpu=0.0 Vmaxpu=1.2 model=1
New Load.motor_load_p6ulv13323_1 conn=wye bus1=p6ulv13323.1 kV=0.12 kW=1.244799965958402 kvar=0.24895999319168038 Phases=1 Vminpu=0.0 Vmaxpu=1.2 model=1
New Load.motor_load_p6ulv13324_1 conn=wye bus1=p6ulv13324.1 kV=0.12 kW=1.2189409723576488 kvar=0.24378819447152977 Phases=1 Vminpu=0.0 Vmaxpu=1.2 model=1
New Load.motor_load_p6ulv13325_2 conn=wye bus1=p6ulv13325.2 kV=0.12 kW=1.0765618250594389 kvar=0.21531236501188777 Phases=1 Vminpu=0.0 Vmaxpu=1.2 model=1
New Load.motor_load_p6ulv13326_1 conn=wye bus1=p6ulv13326.1 kV=0.12 kW=1.1277088988588289 kvar=0.2255417797717658 Phases=1 Vminpu=0.0 Vmaxpu=1.2 model=1
New Load.motor_load_p6ulv13328_1 conn=wye bus1=p6ulv13328.1 kV=0.12 kW=1.2101426282341845 kvar=0.2420285256468369 Phases=1 Vminpu=0.0 Vmaxpu=1.2 model=1
New Load.motor_load_p6ulv13330_1 conn=wye bus1=p6ulv13330.1 kV=0.12 kW=1.121183105905357 kvar=0.2242366211810714 Phases=1 Vminpu=0.0 Vmaxpu=1.2 model=1
New Load.motor_load_p6ulv13330_2 conn=wye bus1=p6ulv13330.2 kV=0.12 kW=1.2104849752362878 kvar=0.24209699504725757 Phases=1 Vminpu=0.0 Vmaxpu=1.2 model=1
New Load.motor_load_p6ulv13332_1 conn=wye bus1=p6ulv13332.1 kV=0.12 kW=1.126153751307372 kvar=0.22523075026147443 Phases=1 Vminpu=0.0 Vmaxpu=1.2 model=1
New Load.motor_load_p6ulv13335_1 conn=wye bus1=p6ulv13335.1 kV=0.12 kW=1.2535201766934336 kvar=0.25070403533868674 Phases=1 Vminpu=0.0 Vmaxpu=1.2 model=1
New Load.motor_load_p6ulv13339_2 conn=wye bus1=p6ulv13339.2 kV=0.12 kW=1.150220942548442 kvar=0.2300441885096884 Phases=1 Vminpu=0.0 Vmaxpu=1.2 model=1
New Load.motor_load_p6ulv13340_2 conn=wye bus1=p6ulv13340.2 kV=0.12 kW=1.0898872920793217 kvar=0.21797745841586436 Phases=1 Vminpu=0.0 Vmaxpu=1.2 model=1
New Load.motor_load_p6ulv13341_1 conn=wye bus1=p6ulv13341.1 kV=0.12 kW=1.0743341024351514 kvar=0.2148668204870303 Phases=1 Vminpu=0.0 Vmaxpu=1.2 model=1
New Load.motor_load_p6ulv13341_2 conn=wye bus1=p6ulv13341.2 kV=0.12 kW=1.2393796294582513 kvar=0.24787592589165028 Phases=1 Vminpu=0.0 Vmaxpu=1.2 model=1
New Load.motor_load_p6ulv13344_1 conn=wye bus1=p6ulv13344.1 kV=0.12 kW=1.217924826067127 kvar=0.2435849652134254 Phases=1 Vminpu=0.0 Vmaxpu=1.2 model=1
New Load.motor_load_p6ulv13346_1 conn=wye bus1=p6ulv13346.1 kV=0.12 kW=1.1249494448954882 kvar=0.22498988897909766 Phases=1 Vminpu=0.0 Vmaxpu=1.2 model=1
New Load.motor_load_p6ulv13347_1 conn=wye bus1=p6ulv13347.1 kV=0.12 kW=1.1435227389886766 kvar=0.22870454779773533 Phases=1 Vminpu=0.0 Vmaxpu=1.2 model=1
New Load.motor_load_p6ulv13350_1 conn=wye bus1=p6ulv13350.1 kV=0.12 kW=1.1500877769107587 kvar=0.23001755538215174 Phases=1 Vminpu=0.0 Vmaxpu=1.2 model=1
New Load.motor_load_p6ulv13352_2 conn=wye bus1=p6ulv13352.2 kV=0.12 kW=1.0602604829964548 kvar=0.21205209659929097 Phases=1 Vminpu=0.0 Vmaxpu=1.2 model=1
New Load.motor_load_p6ulv13353_1 conn=wye bus1=p6ulv13353.1 kV=0.12 kW=1.2410590479109345 kvar=0.24821180958218692 Phases=1 Vminpu=0.0 Vmaxpu=1.2 model=1
New Load.motor_load_p6ulv13354_2 conn=wye bus1=p6ulv13354.2 kV=0.12 kW=1.0695015528671867 kvar=0.21390031057343736 Phases=1 Vminpu=0.0 Vmaxpu=1.2 model=1
New Load.motor_load_p6ulv13355_1 conn=wye bus1=p6ulv13355.1 kV=0.12 kW=1.1047003077291084 kvar=0.2209400615458217 Phases=1 Vminpu=0.0 Vmaxpu=1.2 model=1
New Load.motor_load_p6ulv13356_2 conn=wye bus1=p6ulv13356.2 kV=0.12 kW=1.1032808236831433 kvar=0.22065616473662866 Phases=1 Vminpu=0.0 Vmaxpu=1.2 model=1
New Load.motor_load_p6ulv13358_1 conn=wye bus1=p6ulv13358.1 kV=0.12 kW=1.2314406885704212 kvar=0.24628813771408425 Phases=1 Vminpu=0.0 Vmaxpu=1.2 model=1
New Load.motor_load_p6ulv13359_2 conn=wye bus1=p6ulv13359.2 kV=0.12 kW=1.1666836866077583 kvar=0.2333367373215517 Phases=1 Vminpu=0.0 Vmaxpu=1.2 model=1
New Load.motor_load_p6ulv13360_1 conn=wye bus1=p6ulv13360.1 kV=0.12 kW=1.1549955646723316 kvar=0.23099911293446632 Phases=1 Vminpu=0.0 Vmaxpu=1.2 model=1
New Load.motor_load_p6ulv13363_2 conn=wye bus1=p6ulv13363.2 kV=0.12 kW=1.1228675708658657 kvar=0.22457351417317317 Phases=1 Vminpu=0.0 Vmaxpu=1.2 model=1
New Load.motor_load_p6ulv13364_1 conn=wye bus1=p6ulv13364.1 kV=0.12 kW=1.1561939837397346 kvar=0.23123879674794692 Phases=1 Vminpu=0.0 Vmaxpu=1.2 model=1
New Load.motor_load_p6ulv13365_1 conn=wye bus1=p6ulv13365.1 kV=0.12 kW=1.2454272925890804 kvar=0.24908545851781608 Phases=1 Vminpu=0.0 Vmaxpu=1.2 model=1
New Load.motor_load_p6ulv13366_2 conn=wye bus1=p6ulv13366.2 kV=0.12 kW=1.1888741325107648 kvar=0.23777482650215298 Phases=1 Vminpu=0.0 Vmaxpu=1.2 model=1
New Load.motor_load_p6ulv13368_1 conn=wye bus1=p6ulv13368.1 kV=0.12 kW=1.1695553932200997 kvar=0.23391107864401994 Phases=1 Vminpu=0.0 Vmaxpu=1.2 model=1
New Load.motor_load_p6ulv13369_1 conn=wye bus1=p6ulv13369.1 kV=0.12 kW=1.1738823424018976 kvar=0.23477646848037953 Phases=1 Vminpu=0.0 Vmaxpu=1.2 model=1
New Load.motor_load_p6ulv13370_1 conn=wye bus1=p6ulv13370.1 kV=0.12 kW=1.0950526995662193 kvar=0.21901053991324387 Phases=1 Vminpu=0.0 Vmaxpu=1.2 model=1
New Load.motor_load_p6ulv13371_1 conn=wye bus1=p6ulv13371.1 kV=0.12 kW=1.1668062911562698 kvar=0.23336125823125398 Phases=1 Vminpu=0.0 Vmaxpu=1.2 model=1
New Load.motor_load_p6ulv13372_1 conn=wye bus1=p6ulv13372.1 kV=0.12 kW=1.115463531997319 kvar=0.2230927063994638 Phases=1 Vminpu=0.0 Vmaxpu=1.2 model=1
New Load.motor_load_p6ulv16333_2 conn=wye bus1=p6ulv16333.2 kV=0.12 kW=1.1614830356202066 kvar=0.23229660712404132 Phases=1 Vminpu=0.0 Vmaxpu=1.2 model=1
New Load.motor_load_p6ulv16337_2 conn=wye bus1=p6ulv16337.2 kV=0.12 kW=1.086251378675089 kvar=0.2172502757350178 Phases=1 Vminpu=0.0 Vmaxpu=1.2 model=1
New Load.motor_load_p6ulv16338_2 conn=wye bus1=p6ulv16338.2 kV=0.12 kW=1.1939883876540882 kvar=0.23879767753081765 Phases=1 Vminpu=0.0 Vmaxpu=1.2 model=1
New Load.motor_load_p6ulv16339_1 conn=wye bus1=p6ulv16339.1 kV=0.12 kW=1.0658052666372275 kvar=0.2131610533274455 Phases=1 Vminpu=0.0 Vmaxpu=1.2 model=1
New Load.motor_load_p6ulv16340_2 conn=wye bus1=p6ulv16340.2 kV=0.12 kW=1.2163768294661588 kvar=0.24327536589323176 Phases=1 Vminpu=0.0 Vmaxpu=1.2 model=1
New Load.motor_load_p6ulv16343_1 conn=wye bus1=p6ulv16343.1 kV=0.12 kW=1.192898654087812 kvar=0.2385797308175624 Phases=1 Vminpu=0.0 Vmaxpu=1.2 model=1
New Load.motor_load_p6ulv16344_2 conn=wye bus1=p6ulv16344.2 kV=0.12 kW=1.0826866688498435 kvar=0.21653733376996873 Phases=1 Vminpu=0.0 Vmaxpu=1.2 model=1