New Generator.pv_load_p6ulv7111_1 conn=wye bus1=p6ulv7111.1 kV=0.12 model=7 kW=1.9793000405810555 kvar=-0.0 Phases=1
New Generator.pv_load_p6ulv7113_1 conn=wye bus1=p6ulv7113.1 kV=0.12 model=7 kW=1.898144846473663 kvar=-0.0 Phases=1
New Generator.pv_load_p6ulv8124_2 conn=wye bus1=p6ulv8124.2 kV=0.12 model=7 kW=1.0490165476540503 kvar=-0.0 Phases=1
New Generator.pv_load_p6ulv8127_2 conn=wye bus1=p6ulv8127.2 kV=0.12 model=7 kW=1.3105196233035783 kvar=-0.0 Phases=1
New Generator.pv_load_p6ulv8129_2 conn=wye bus1=p6ulv8129.2 kV=0.12 model=7 kW=1.7523660718733467 kvar=-0.0 Phases=1
New Generator.pv_load_p6ulv8135_1 conn=wye bus1=p6ulv8135.1 kV=0.12 model=7 kW=1.369131707936695 kvar=-0.0 Phases=1
New Generator.pv_load_p6ulv8138_2 conn=wye bus1=p6ulv8138.2 kV=0.12 model=7 kW=0.3306352780373067 kvar=-0.0 Phases=1
New Generator.pv_load_p6ulv8141_1 conn=wye bus1=p6ulv8141.1 kV=0.12 model=7 kW=0.1803463786681705 kvar=-0.0 Phases=1
New Generator.pv_load_p6ulv8145_1 conn=wye bus1=p6ulv8145.1 kV=0.12 model=7 kW=0.3261266561424516 kvar=-0.0 Phases=1
New Generator.pv_load_p6ulv8149_1 conn=wye bus1=p6ulv8149.1 kV=0.12 model=7 kW=0.3336410259672101 kvar=-0.0 Phases=1
New Generator.pv_load_p6ulv8150_1 conn=wye bus1=p6ulv8150.1 kV=0.12 model=7 kW=0.2675145715093348 kvar=-0.0 Phases=1
New Generator.pv_load_p6ulv8151_1 conn=wye bus1=p6ulv8151.1 kV=0.12 model=7 kW=0.34115539579196874 kvar=-0.0 Phases=1
New Generator.pv_load_p6ulv8152_2 conn=wye bus1=p6ulv8152.2 kV=0.12 model=7 kW=0.3336410259672101 kvar=-0.0 Phases=1
New Generator.pv_load_p6ulv8153_2 conn=wye bus1=p6ulv8153.2 kV=0.12 model=7 kW=0.24797720996496253 kvar=-0.0 Phases=1
New Generator.pv_load_p6ulv8159_2 conn=wye bus1=p6ulv8159.2 kV=0.12 model=7 kW=0.22392972365177016 kvar=-0.0 Phases=1
New Generator.pv_load_p6ulv8160_2 conn=wye bus1=p6ulv8159.2 kV=0.12 model=7 kW=0.29757205080836907 kvar=-0.0 Phases=1
New Generator.pv_load_p6ulv8162_1 conn=wye bus1=p6ulv8162.1 kV=0.12 model=7 kW=0.20138661417749446 kvar=-0.0 Phases=1
New Generator.pv_load_p6ulv8162_2 conn=wye bus1=p6ulv8162.2 kV=0.12 model=7 kW=0.20138661417749446 kvar=-0.0 Phases=1
New Generator.pv_load_p6ulv8164_1 conn=wye bus1=p6ulv8164.1 kV=0.12 model=7 kW=0.18335212659807393 kvar=-0.0 Phases=1
New Generator.pv_load_p6ulv8165_1 conn=wye bus1=p6ulv8165.1 kV=0.12 model=7 kW=0.339652521827017 kvar=-0.0 Phases=1
New Generator.pv_load_p6ulv8167_2 conn=wye bus1=p6ulv8167.2 kV=0.12 model=7 kW=0.32011516028264475 kvar=-0.0 Phases=1
New Generator.pv_load_p6ulv8169_1 conn=wye bus1=p6ulv8169.1 kV=0.12 model=7 kW=0.3020806727032242 kvar=-0.0 Phases=1
New Generator.pv_load_p6ulv8170_2 conn=wye bus1=p6ulv8170.2 kV=0.12 model=7 kW=0.3246237821774999 kvar=-0.0 Phases=1
New Generator.pv_load_p6ulv8172_2 conn=wye bus1=p6ulv8172.2 kV=0.12 model=7 kW=0.21340960589710817 kvar=-0.0 Phases=1
New Generator.pv_load_p6ulv8173_2 conn=wye bus1=p6ulv8173.2 kV=0.12 model=7 kW=0.6116757152312069 kvar=-0.0 Phases=1
New Generator.pv_load_p6ulv8179_1 conn=wye bus1=p6ulv8179.1 kV=0.12 model=7 kW=0.4824270513713947 kvar=-0.0 Phases=1
New Generator.pv_load_p6ulv8182_2 conn=wye bus1=p6ulv8182.2 kV=0.12 model=7 kW=0.19387224435273592 kvar=-0.0 Phases=1
New Generator.pv_load_p6ulv8183_2 conn=wye bus1=p6ulv8183.2 kV=0.12 model=7 kW=0.2600002016845762 kvar=-0.0 Phases=1
New Generator.pv_load_p6ulv8184_1 conn=wye bus1=p6ulv8184.1 kV=0.12 model=7 kW=0.21340960589710817 kvar=-0.0 Phases=1
New Generator.pv_load_p6ulv8186_2 conn=wye bus1=p6ulv8186.2 kV=0.12 model=7 kW=0.27352606736914165 kvar=-0.0 Phases=1
New Generator.pv_load_p6ulv8193_2 conn=wye bus1=p6ulv8193.2 kV=0.12 model=7 kW=0.3832373696845817 kvar=-0.0 Phases=1
New Generator.pv_load_p6ulv8197_2 conn=wye bus1=p6ulv8197.2 kV=0.12 model=7 kW=0.2539887058247694 kvar=-0.0 Phases=1
New Generator.pv_load_p6ulv11954 conn=wye bus1=p6ulv11954.1.2.3 kV=0.48 model=7 kW=8.972247743199624 kvar=-0.0 Phases=3
New Generator.pv_load_p6ulv11963_2 conn=wye bus1=p6ulv11963.2 kV=0.12 model=7 kW=0.11722537156540556 kvar=-0.0 Phases=1
New Generator.pv_load_p6ulv11965_2 conn=wye bus1=p6ulv11965.2 kV=0.12 model=7 kW=0.11271674967055043 kvar=-0.0 Phases=1
New Generator.pv_load_p6ulv13099_1 conn=wye bus1=p6ulv13099.1 kV=0.12 model=7 kW=0.08416184376167489 kvar=-0.0 Phases=1
New Generator.pv_load_p6ulv13103_1 conn=wye bus1=p6ulv13102.1 kV=0.12 model=7 kW=0.29907492477332076 kvar=-0.0 Phases=1
New Generator.pv_load_p6ulv13105_1 conn=wye bus1=p6ulv13105.1 kV=0.12 model=7 kW=0.3922546134742919 kvar=-0.0 Phases=1
New Generator.pv_load_p6ulv13106_1 conn=wye bus1=p6ulv13106.1 kV=0.12 model=7 kW=0.360692757336341 kvar=-0.0 Phases=1
New Generator.pv_load_p6ulv13108_1 conn=wye bus1=p6ulv13108.1 kV=0.12 model=7 kW=0.7619646146003431 kvar=-0.0 Phases=1
New Generator.pv_load_p6ulv13121_1 conn=wye bus1=p6ulv13121.1 kV=0.12 model=7 kW=0.12624261535511583 kvar=-0.0 Phases=1
New Generator.pv_load_p6ulv13123_1 conn=wye bus1=p6ulv13123.1 kV=0.12 model=7 kW=0.16381476505370163 kvar=-0.0 Phases=1
New Generator.pv_load_p6ulv13124_1 conn=wye bus1=p6ulv13124.1 kV=0.12 model=7 kW=0.19988374021254274 kvar=-0.0 Phases=1
New Generator.pv_load_p6ulv13125_2 conn=wye bus1=p6ulv13125.2 kV=0.12 model=7 kW=0.2810404371939002 kvar=-0.0 Phases=1
New Generator.pv_load_p6ulv13140_1 conn=wye bus1=p6ulv13140.1 kV=0.12 model=7 kW=0.25699445375467284 kvar=-0.0 Phases=1
New Generator.pv_load_p6ulv13140_2 conn=wye bus1=p6ulv13140.2 kV=0.12 model=7 kW=0.25699445375467284 kvar=-0.0 Phases=1
New Generator.pv_load_p6ulv13142_1 conn=wye bus1=p6ulv13142.1 kV=0.12 model=7 kW=0.19988374021254274 kvar=-0.0 Phases=1
New Generator.pv_load_p6ulv13143_2 conn=wye bus1=p6ulv13143.2 kV=0.12 model=7 kW=0.21791822779196332 kvar=-0.0 Phases=1
New Generator.pv_load_p6ulv13144_2 conn=wye bus1=p6ulv13144.2 kV=0.12 model=7 kW=0.19387224435273592 kvar=-0.0 Phases=1
New Generator.pv_load_p6ulv13148_2 conn=wye bus1=p6ulv13148.2 kV=0.12 model=7 kW=0.28855480701865877 kvar=-0.0 Phases=1
New Generator.pv_load_p6ulv13156_1 conn=wye bus1=p6ulv13156.1 kV=0.12 model=7 kW=0.2164153538270116 kvar=-0.0 Phases=1
New Generator.pv_load_p6ulv13164_1 conn=wye bus1=p6ulv13164.1 kV=0.12 model=7 kW=0.2164153538270116 kvar=-0.0 Phases=1
New Generator.pv_load_p6ulv13166_1 conn=wye bus1=p6ulv13166.1 kV=0.12 model=7 kW=0.3336410259672101 kvar=-0.0 Phases=1
New Generator.pv_load_p6ulv13166_2 conn=wye bus1=p6ulv13166.2 kV=0.12 model=7 kW=0.3336410259672101 kvar=-0.0 Phases=1
New Generator.pv_load_p6ulv13168_2 conn=wye bus1=p6ulv13168.2 kV=0.12 model=7 kW=0.35918988337138924 kvar=-0.0 Phases=1
New Generator.pv_load_p6ulv13185_1 conn=wye bus1=p6ulv13185.1 kV=0.12 model=7 kW=0.23895996617525225 kvar=-0.0 Phases=1
New Generator.pv_load_p6ulv13186_1 conn=wye bus1=p6ulv13186.1 kV=0.12 model=7 kW=0.27352606736914165 kvar=-0.0 Phases=1
New Generator.pv_load_p6ulv13198_1 conn=wye bus1=p6ulv13198.1 kV=0.12 model=7 kW=0.1818492526331222 kvar=-0.0 Phases=1
New Generator.pv_load_p6ulv13202_1 conn=wye bus1=p6ulv13202.1 kV=0.12 model=7 kW=0.2584973277196246 kvar=-0.0 Phases=1
New Generator.pv_load_p6ulv13206_1 conn=wye bus1=p6ulv13206.1 kV=0.12 model=7 kW=0.26300594961447965 kvar=-0.0 Phases=1
New Generator.pv_load_p6ulv13212_2 conn=wye bus1=p6ulv13212.2 kV=0.12 model=7 kW=0.28404618512380364 kvar=-0.0 Phases=1
New Generator.pv_load_p6ulv13218_1 conn=wye bus1=p6ulv13218.1 kV=0.12 model=7 kW=0.18485500056302565 kvar=-0.0 Phases=1
New Generator.pv_load_p6ulv13225_2 conn=wye bus1=p6ulv13225.2 kV=0.12 model=7 kW=0.21942110175691504 kvar=-0.0 Phases=1
New Generator.pv_load_p6ulv13227_1 conn=wye bus1=p6ulv13227.1 kV=0.12 model=7 kW=0.3005777987382725 kvar=-0.0 Phases=1
New Generator.pv_load_p6ulv13230_1 conn=wye bus1=p6ulv13230.1 kV=0.12 model=7 kW=0.18335212659807393 kvar=-0.0 Phases=1
New Generator.pv_load_p6ulv13230_2 conn=wye bus1=p6ulv13230.2 kV=0.12 model=7 kW=0.18335212659807393 kvar=-0.0 Phases=1
New Generator.pv_load_p6ulv13231_1 conn=wye bus1=p6ulv13231.1 kV=0.12 model=7 kW=0.2058952360723496 kvar=-0.0 Phases=1
New Generator.pv_load_p6ulv13234_1 conn=wye bus1=p6ulv13234.1 kV=0.12 model=7 kW=0.2539887058247694 kvar=-0.0 Phases=1
New Generator.pv_load_p6ulv13236_2 conn=wye bus1=p6ulv13236.2 kV=0.12 model=7 kW=0.2464743360000108 kvar=-0.0 Phases=1
New Generator.pv_load_p6ulv13237_2 conn=wye bus1=p6ulv13237.2 kV=0.12 model=7 kW=0.22693697445563854 kvar=-0.0 Phases=1
New Generator.pv_load_p6ulv13241_1 conn=wye bus1=p6ulv13241.1 kV=0.12 model=7 kW=0.3937574874392436 kvar=-0.0 Phases=1
New Generator.pv_load_p6ulv13242_1 conn=wye bus1=p6ulv13242.1 kV=0.12 model=7 kW=0.24797720996496253 kvar=-0.0 Phases=1
New Generator.pv_load_p6ulv13242_2 conn=wye bus1=p6ulv13242.2 kV=0.12 model=7 kW=0.24797720996496253 kvar=-0.0 Phases=1
New Generator.pv_load_p6ulv13243_1 conn=wye bus1=p6ulv13243.1 kV=0.12 model=7 kW=0.26300594961447965 kvar=-0.0 Phases=1
New Generator.pv_load_p6ulv13249_1 conn=wye bus1=p6ulv13249.1 kV=0.12 model=7 kW=0.19988374021254274 kvar=-0.0 Phases=1
New Generator.pv_load_p6ulv13249_2 conn=wye bus1=p6ulv13249.2 kV=0.12 model=7 kW=0.19988374021254274 kvar=-0.0 Phases=1
New Generator.pv_load_p6ulv13250_1 conn=wye bus1=p6ulv13250.1 kV=0.12 model=7 kW=0.8852017826003488 kvar=-0.0 Phases=1
New Generator.pv_load_p6ulv13255_1 conn=wye bus1=p6ulv13255.1 kV=0.12 model=7 kW=0.32762953010740326 kvar=-0.0 Phases=1
New Generator.pv_load_p6ulv13255_2 conn=wye bus1=p6ulv13255.2 kV=0.12 model=7 kW=0.32762953010740326 kvar=-0.0 Phases=1
New Generator.pv_load_p6ulv13258_1 conn=wye bus1=p6ulv13258.1 kV=0.12 model=7 kW=0.6507504383199515 kvar=-0.0 Phases=1
New Generator.pv_load_p6ulv13259_2 conn=wye bus1=p6ulv13259.2 kV=0.12 model=7 kW=1.2263571783923173 kvar=-0.0 Phases=1
New Generator.pv_load_p6ulv13262_2 conn=wye bus1=p6ulv13262.2 kV=0.12 model=7 kW=0.7815019761447154 kvar=-0.0 Phases=1
New Generator.pv_load_p6ulv13264_1 conn=wye bus1=p6ulv13264.1 kV=0.12 model=7 kW=0.559075126457897 kvar=-0.0 Phases=1
New Generator.pv_load_p6ulv13272_2 conn=wye bus1=p6ulv13272.2 kV=0.12 model=7 kW=0.3486697656167273 kvar=-0.0 Phases=1
New Generator.pv_load_p6ulv13273_1 conn=wye bus1=p6ulv13273.1 kV=0.12 model=7 kW=0.4208092188083745 kvar=-0.0 Phases=1
New Generator.pv_load_p6ulv13277_2 conn=wye bus1=p6ulv13277.2 kV=0.12 model=7 kW=0.2915605549485622 kvar=-0.0 Phases=1
New Generator.pv_load_p6ulv13285_1 conn=wye bus1=p6ulv13285.1 kV=0.12 model=7 kW=1.1452019842849248 kvar=-0.0 Phases=1
New Generator.pv_load_p6ulv13286_2 conn=wye bus1=p6ulv13286.2 kV=0.12 model=7 kW=1.0805769009180362 kvar=-0.0 Phases=1
New Generator.pv_load_p6ulv13287_1 conn=wye bus1=p6ulv13287.1 kV=0.12 model=7 kW=0.9949130849157886 kvar=-0.0 Phases=1
New Generator.pv_load_p6ulv13288_2 conn=wye bus1=p6ulv13288.2 kV=0.12 model=7 kW=0.3757214969858581 kvar=-0.0 Phases=1
New Generator.pv_load_p6ulv13292_1 conn=wye bus1=p6ulv13292.1 kV=0.12 model=7 kW=0.21491247986205989 kvar=-0.0 Phases=1
New Generator.pv_load_p6ulv13301_2 conn=wye bus1=p6ulv13301.2 kV=0.12 model=7 kW=0.2164153538270116 kvar=-0.0 Phases=1
New Generator.pv_load_p6ulv13306_2 conn=wye bus1=p6ulv13306.2 kV=0.12 model=7 kW=0.28855480701865877 kvar=-0.0 Phases=1
New Generator.pv_load_p6ulv13307_1 conn=wye bus1=p6ulv13307.1 kV=0.12 model=7 kW=0.24196571410515566 kvar=-0.0 Phases=1
New Generator.pv_load_p6ulv13316_1 conn=wye bus1=p6ulv13316.1 kV=0.12 model=7 kW=0.2675145715093348 kvar=-0.0 Phases=1
New Generator.pv_load_p6ulv13316_2 conn=wye bus1=p6ulv13316.2 kV=0.12 model=7 kW=0.2675145715093348 kvar=-0.0 Phases=1
New Generator.pv_load_p6ulv13330_2 conn=wye bus1=p6ulv13330.2 kV=0.12 model=7 kW=0.329132404072355 kvar=-0.0 Phases=1
New Generator.pv_load_p6ulv13332_2 conn=wye bus1=p6ulv13332.2 kV=0.12 model=7 kW=0.2870519330537071 kvar=-0.0 Phases=1
New Generator.pv_load_p6ulv13333_2 conn=wye bus1=p6ulv13333.2 kV=0.12 model=7 kW=0.27502894133409334 kvar=-0.0 Phases=1
New Generator.pv_load_p6ulv13334_1 conn=wye bus1=p6ulv13334.1 kV=0.12 model=7 kW=0.1908664964228325 kvar=-0.0 Phases=1
New Generator.pv_load_p6ulv13336_1 conn=wye bus1=p6ulv13336.1 kV=0.12 model=7 kW=0.24797720996496253 kvar=-0.0 Phases=1
New Generator.pv_load_p6ulv13341_2 conn=wye bus1=p6ulv13341.2 kV=0.12 model=7 kW=0.23595421824534882 kvar=-0.0 Phases=1
New Generator.pv_load_p6ulv13342_1 conn=wye bus1=p6ulv13342.1 kV=0.12 model=7 kW=0.21040385796720473 kvar=-0.0 Phases=1
New Generator.pv_load_p6ulv13343_2 conn=wye bus1=p6ulv13343.2 kV=0.12 model=7 kW=0.16682051298360506 kvar=-0.0 Phases=1
New Generator.pv_load_p6ulv13344_2 conn=wye bus1=p6ulv13344.2 kV=0.12 model=7 kW=0.3141036644228379 kvar=-0.0 Phases=1
New Generator.pv_load_p6ulv13345_2 conn=wye bus1=p6ulv13345.2 kV=0.12 model=7 kW=0.2464743360000108 kvar=-0.0 Phases=1
New Generator.pv_load_p6ulv13346_1 conn=wye bus1=p6ulv13346.1 kV=0.12 model=7 kW=0.2584973277196246 kvar=-0.0 Phases=1
New Generator.pv_load_p6ulv13348_2 conn=wye bus1=p6ulv13348.2 kV=0.12 model=7 kW=0.1923693703877842 kvar=-0.0 Phases=1
New Generator.pv_load_p6ulv13352_2 conn=wye bus1=p6ulv13352.2 kV=0.12 model=7 kW=0.2449714620350591 kvar=-0.0 Phases=1
New Generator.pv_load_p6ulv13354_1 conn=wye bus1=p6ulv13354.1 kV=0.12 model=7 kW=0.24948008392991425 kvar=-0.0 Phases=1
New Generator.pv_load_p6ulv13355_1 conn=wye bus1=p6ulv13355.1 kV=0.12 model=7 kW=0.17132913487846022 kvar=-0.0 Phases=1
New Generator.pv_load_p6ulv13357_2 conn=wye bus1=p6ulv13357.2 kV=0.12 model=7 kW=0.3937574874392436 kvar=-0.0 Phases=1
New Generator.pv_load_p6ulv13359_1 conn=wye bus1=p6ulv13359.1 kV=0.12 model=7 kW=0.15780326919389484 kvar=-0.0 Phases=1
New Generator.pv_load_p6ulv13360_2 conn=wye bus1=p6ulv13360.2 kV=0.12 model=7 kW=0.17283200884341193 kvar=-0.0 Phases=1
New Generator.pv_load_p6ulv13361_1 conn=wye bus1=p6ulv13361.1 kV=0.12 model=7 kW=0.22693697445563854 kvar=-0.0 Phases=1
New Generator.pv_load_p6ulv13362_1 conn=wye bus1=p6ulv13362.1 kV=0.12 model=7 kW=0.5771096140373175 kvar=-0.0 Phases=1
New Generator.pv_load_p6ulv13364_1 conn=wye bus1=p6ulv13364.1 kV=0.12 model=7 kW=0.22392972365177016 kvar=-0.0 Phases=1
New Generator.pv_load_p6ulv13369_1 conn=wye bus1=p6ulv13369.1 kV=0.12 model=7 kW=0.1803463786681705 kvar=-0.0 Phases=1
New Generator.pv_load_p6ulv13370_1 conn=wye bus1=p6ulv13370.1 kV=0.12 model=7 kW=0.13075138753736748 kvar=-0.0 Phases=1
New Generator.pv_load_p6ulv13380 conn=wye bus1=p6ulv13380.1.2.3 kV=0.48 model=7 kW=8.80993735498484 kvar=-0.0 Phases=3
New Generator.pv_load_p6ulv16329_1 conn=wye bus1=p6ulv16329.1 kV=0.12 model=7 kW=0.5876297317919795 kvar=-0.0 Phases=1
New Generator.pv_load_p6ulv16330_2 conn=wye bus1=p6ulv16329.2 kV=0.12 model=7 kW=1.2879765138293024 kvar=-0.0 Phases=1
New Generator.pv_load_p6ulv16332_2 conn=wye bus1=p6ulv16331.2 kV=0.12 model=7 kW=0.4208092188083745 kvar=-0.0 Phases=1
New Generator.pv_load_p6ulv16335 conn=wye bus1=p6ulv16335.1.2.3 kV=0.48 model=7 kW=15.110045131021016 kvar=-0.0 Phases=3
New Generator.pv_load_p6ulv16340_1 conn=wye bus1=p6ulv16340.1 kV=0.12 model=7 kW=0.22994272238554195 kvar=-0.0 Phases=1
New Generator.pv_load_p6ulv16342_1 conn=wye bus1=p6ulv16342.1 kV=0.12 model=7 kW=0.19687799228263936 kvar=-0.0 Phases=1
New Generator.pv_load_p6ulv16345_1 conn=wye bus1=p6ulv16345.1 kV=0.12 model=7 kW=1.9898201583357173 kvar=-0.0 Phases=1
New Generator.pv_load_p6ulv16347_1 conn=wye bus1=p6ulv16347.1 kV=0.12 model=7 kW=0.1563003952289431 kvar=-0.0 Phases=1
New Generator.pv_load_p6ulv16348_2 conn=wye bus1=p6ulv16348.2 kV=0.12 model=7 kW=0.14427740350932938 kvar=-0.0 Phases=1
New Generator.pv_load_p6ulv16350_1 conn=wye bus1=p6ulv16350.1 kV=0.12 model=7 kW=0.16531763901865335 kvar=-0.0 Phases=1
New Generator.pv_load_p6ulv16350_2 conn=wye bus1=p6ulv16350.2 kV=0.12 model=7 kW=0.16531763901865335 kvar=-0.0 Phases=1
New Generator.pv_load_p6ulv16356_2 conn=wye bus1=p6ulv16356.2 kV=0.12 model=7 kW=0.41479772294856765 kvar=-0.0 Phases=1
New Generator.pv_load_p6ulv16357_1 conn=wye bus1=p6ulv16357.1 kV=0.12 model=7 kW=0.2539887058247694 kvar=-0.0 Phases=1
New Generator.pv_load_p6ulv16357_2 conn=wye bus1=p6ulv16357.2 kV=0.12 model=7 kW=0.2539887058247694 kvar=-0.0 Phases=1
New Generator.pv_load_p6ulv16358_2 conn=wye bus1=p6ulv16358.2 kV=0.12 model=7 kW=1.1887853292685244 kvar=-0.0 Phases=1
New Generator.pv_load_p6ulv16359_2 conn=wye bus1=p6ulv16359.2 kV=0.12 model=7 kW=2.6015048908107135 kvar=-0.0 Phases=1
New Generator.pv_load_p6ulv16360_1 conn=wye bus1=p6ulv16360.1 kV=0.12 model=7 kW=0.23745709221030054 kvar=-0.0 Phases=1
New Generator.pv_load_p6ulv16362_1 conn=wye bus1=p6ulv16362.1 kV=0.12 model=7 kW=0.25699445375467284 kvar=-0.0 Phases=1
New Generator.pv_load_p6ulv16364_1 conn=wye bus1=p6ulv16364.1 kV=0.12 model=7 kW=0.24346858807010738 kvar=-0.0 Phases=1
New Generator.pv_load_p6ulv16368_1 conn=wye bus1=p6ulv16368.1 kV=0.12 model=7 kW=0.2058952360723496 kvar=-0.0 Phases=1
New Generator.pv_load_p6ulv16369_1 conn=wye bus1=p6ulv16369.1 kV=0.12 model=7 kW=1.9086649642283249 kvar=-0.0 Phases=1
New Generator.pv_load_p6ulv16371_1 conn=wye bus1=p6ulv16371.1 kV=0.12 model=7 kW=0.30959504252798276 kvar=-0.0 Phases=1
New Generator.pv_load_p6ulv16375_2 conn=wye bus1=p6ulv16375.2 kV=0.12 model=7 kW=0.2720231934041899 kvar=-0.0 Phases=1
New Generator.pv_load_p6ulv16376_2 conn=wye bus1=p6ulv16376.2 kV=0.12 model=7 kW=0.26901744547428647 kvar=-0.0 Phases=1
New Generator.pv_load_p6ulv16377_2 conn=wye bus1=p6ulv16377.2 kV=0.12 model=7 kW=0.3486697656167273 kvar=-0.0 Phases=1
New Generator.pv_load_p6ulv16378_1 conn=wye bus1=p6ulv16378.1 kV=0.12 model=7 kW=0.1908664964228325 kvar=-0.0 Phases=1
New Generator.pv_load_p6ulv16380_2 conn=wye bus1=p6ulv16380.2 kV=0.12 model=7 kW=0.42832358863313297 kvar=-0.0 Phases=1
New Generator.pv_load_p6ulv16419_2 conn=wye bus1=p6ulv16419.2 kV=0.12 model=7 kW=0.3005777987382725 kvar=-0.0 Phases=1
New Generator.pv_load_p6ulv16424_1 conn=wye bus1=p6ulv16424.1 kV=0.12 model=7 kW=0.18485500056302565 kvar=-0.0 Phases=1
New Generator.pv_load_p6ulv16424_2 conn=wye bus1=p6ulv16424.2 kV=0.12 model=7 kW=0.18485500056302565 kvar=-0.0 Phases=1
New Generator.pv_load_p6ulv16426_1 conn=wye bus1=p6ulv16426.1 kV=0.12 model=7 kW=0.34115539579196874 kvar=-0.0 Phases=1
New Generator.pv_load_p6ulv16427_1 conn=wye bus1=p6ulv16427.1 kV=0.12 model=7 kW=0.15479752126399138 kvar=-0.0 Phases=1
New Generator.pv_load_p6ulv16432_1 conn=wye bus1=p6ulv16432.1 kV=0.12 model=7 kW=0.22392972365177016 kvar=-0.0 Phases=1
New Generator.pv_load_p6ulv16436_1 conn=wye bus1=p6ulv16436.1 kV=0.12 model=7 kW=0.22242684968681845 kvar=-0.0 Phases=1
New Generator.pv_load_p6ulv16436_2 conn=wye bus1=p6ulv16436.2 kV=0.12 model=7 kW=0.22242684968681845 kvar=-0.0 Phases=1
New Generator.pv_load_p6ulv16440_2 conn=wye bus1=p6ulv16440.2 kV=0.12 model=7 kW=0.22242684968681845 kvar=-0.0 Phases=1
New Generator.pv_load_p6ulv16441_2 conn=wye bus1=p6ulv16441.2 kV=0.12 model=7 kW=0.21942110175691504 kvar=-0.0 Phases=1
New Generator.pv_load_p6ulv16443_2 conn=wye bus1=p6ulv16443.2 kV=0.12 model=7 kW=0.3261266561424516 kvar=-0.0 Phases=1
New Generator.pv_load_p6ulv16451_1 conn=wye bus1=p6ulv16451.1 kV=0.12 model=7 kW=0.2915605549485622 kvar=-0.0 Phases=1
New Generator.pv_load_p6ulv16452_2 conn=wye bus1=p6ulv16452.2 kV=0.12 model=7 kW=0.2720231934041899 kvar=-0.0 Phases=1
New Generator.pv_load_p6ulv19017_2 conn=wye bus1=p6ulv19017.2 kV=0.12 model=7 kW=0.6221958329858689 kvar=-0.0 Phases=1
New Generator.pv_load_p6ulv21517_2 conn=wye bus1=p6ulv21517.2 kV=0.12 model=7 kW=0.2675145715093348 kvar=-0.0 Phases=1
New Generator.pv_load_p6ulv21536_2 conn=wye bus1=p6ulv21536.2 kV=0.12 model=7 kW=0.39075173950934017 kvar=-0.0 Phases=1
New Generator.pv_load_p6ulv21539_1 conn=wye bus1=p6ulv21539.1 kV=0.12 model=7 kW=0.1803463786681705 kvar=-0.0 Phases=1
New Generator.pv_load_p6ulv21540_1 conn=wye bus1=p6ulv21540.1 kV=0.12 model=7 kW=0.14127150529202945 kvar=-0.0 Phases=1
New Generator.pv_load_p6ulv21543_1 conn=wye bus1=p6ulv21543.1 kV=0.12 model=7 kW=0.28554905908875533 kvar=-0.0 Phases=1
New Generator.pv_load_p6ulv21544_1 conn=wye bus1=p6ulv21544.1 kV=0.12 model=7 kW=0.2705203194392382 kvar=-0.0 Phases=1
New Generator.pv_load_p6ulv21750_2 conn=wye bus1=p6ulv21750.2 kV=0.12 model=7 kW=0.360692757336341 kvar=-0.0 Phases=1
New Generator.pv_load_p6ulv21755_1 conn=wye bus1=p6ulv21755.1 kV=0.12 model=7 kW=0.18786074849292905 kvar=-0.0 Phases=1
New Generator.pv_load_p6ulv21758_1 conn=wye bus1=p6ulv21758.1 kV=0.12 model=7 kW=0.20890098400225304 kvar=-0.0 Phases=1
New Generator.pv_load_p6ulv21764_2 conn=wye bus1=p6ulv21764.2 kV=0.12 model=7 kW=0.2960691768434174 kvar=-0.0 Phases=1
New Generator.pv_load_p6ulv21766_2 conn=wye bus1=p6ulv21766.2 kV=0.12 model=7 kW=0.2449714620350591 kvar=-0.0 Phases=1
New Generator.pv_load_p6ulv21771_2 conn=wye bus1=p6ulv21771.2 kV=0.12 model=7 kW=0.1818492526331222 kvar=-0.0 Phases=1
New Generator.pv_load_p6ulv21773_1 conn=wye bus1=p6ulv21773.1 kV=0.12 model=7 kW=0.12774563960746405 kvar=-0.0 Phases=1
New Generator.pv_load_p6ulv21774_1 conn=wye bus1=p6ulv21774.1 kV=0.12 model=7 kW=0.1818492526331222 kvar=-0.0 Phases=1
New Generator.pv_load_p6ulv21774_2 conn=wye bus1=p6ulv21774.2 kV=0.12 model=7 kW=0.1818492526331222 kvar=-0.0 Phases=1
New Generator.pv_load_p6ulv21777_1 conn=wye bus1=p6ulv21777.1 kV=0.12 model=7 kW=0.21190673193215645 kvar=-0.0 Phases=1
New Generator.pv_load_p6ulv21777_2 conn=wye bus1=p6ulv21777.2 kV=0.12 model=7 kW=0.21190673193215645 kvar=-0.0 Phases=1
New Generator.pv_load_p6ulv21778_1 conn=wye bus1=p6ulv21778.1 kV=0.12 model=7 kW=0.09468196151633687 kvar=-0.0 Phases=1
New Generator.pv_load_p6ulv21780_1 conn=wye bus1=p6ulv21780.1 kV=0.12 model=7 kW=0.18635787452797736 kvar=-0.0 Phases=1
New Generator.pv_load_p6ulv21784_1 conn=wye bus1=p6ulv21784.1 kV=0.12 model=7 kW=0.24046284014020394 kvar=-0.0 Phases=1
New Generator.pv_load_p6ulv21789_2 conn=wye bus1=p6ulv21789.2 kV=0.12 model=7 kW=0.09017333962148176 kvar=-0.0 Phases=1
New Generator.pv_load_p6ulv21792_2 conn=wye bus1=p6ulv21792.2 kV=0.12 model=7 kW=0.371212875091003 kvar=-0.0 Phases=1
New Generator.pv_load_p6ulv21794_1 conn=wye bus1=p6ulv21794.1 kV=0.12 model=7 kW=0.18635787452797736 kvar=-0.0 Phases=1
New Generator.pv_load_p6ulv21798_1 conn=wye bus1=p6ulv21798.1 kV=0.12 model=7 kW=0.11722537156540556 kvar=-0.0 Phases=1
New Generator.pv_load_p6ulv21801_1 conn=wye bus1=p6ulv21801.1 kV=0.12 model=7 kW=0.20138661417749446 kvar=-0.0 Phases=1
New Generator.pv_load_p6ulv21803_1 conn=wye bus1=p6ulv21803.1 kV=0.12 model=7 kW=0.2930634289135139 kvar=-0.0 Phases=1
New Generator.pv_load_p6ulv21805_1 conn=wye bus1=p6ulv21805.1 kV=0.12 model=7 kW=0.2539887058247694 kvar=-0.0 Phases=1
New Generator.pv_load_p6ulv21807_2 conn=wye bus1=p6ulv21807.2 kV=0.12 model=7 kW=0.18335212659807393 kvar=-0.0 Phases=1
New Generator.pv_load_p6ulv21810_2 conn=wye bus1=p6ulv21810.2 kV=0.12 model=7 kW=0.2870519330537071 kvar=-0.0 Phases=1
New Generator.pv_load_p6ulv21811_1 conn=wye bus1=p6ulv21811.1 kV=0.12 model=7 kW=0.21040385796720473 kvar=-0.0 Phases=1
New Generator.pv_load_p6ulv21811_2 conn=wye bus1=p6ulv21811.2 kV=0.12 model=7 kW=0.21040385796720473 kvar=-0.0 Phases=1
New Generator.pv_load_p6ulv21813_1 conn=wye bus1=p6ulv21813.1 kV=0.12 model=7 kW=0.2915605549485622 kvar=-0.0 Phases=1
New Generator.pv_load_p6ulv21813_2 conn=wye bus1=p6ulv21813.2 kV=0.12 model=7 kW=0.2915605549485622 kvar=-0.0 Phases=1
New Generator.pv_load_p6ulv21818_2 conn=wye bus1=p6ulv21817.2 kV=0.12 model=7 kW=0.3050864206331276 kvar=-0.0 Phases=1
New Generator.pv_load_p6ulv21819_2 conn=wye bus1=p6ulv21819.2 kV=0.12 model=7 kW=0.2344513442803971 kvar=-0.0 Phases=1
New Generator.pv_load_p6ulv21821_2 conn=wye bus1=p6ulv21821.2 kV=0.12 model=7 kW=0.2675145715093348 kvar=-0.0 Phases=1
New Generator.pv_load_p6ulv21822_1 conn=wye bus1=p6ulv21822.1 kV=0.12 model=7 kW=0.26300594961447965 kvar=-0.0 Phases=1
New Generator.pv_load_p6ulv21823_1 conn=wye bus1=p6ulv21823.1 kV=0.12 model=7 kW=0.21942110175691504 kvar=-0.0 Phases=1
New Generator.pv_load_p6ulv21825_2 conn=wye bus1=p6ulv21825.2 kV=0.12 model=7 kW=0.2765318152990451 kvar=-0.0 Phases=1
New Generator.pv_load_p6ulv21828_1 conn=wye bus1=p6ulv21828.1 kV=0.12 model=7 kW=0.23895996617525225 kvar=-0.0 Phases=1
New Generator.pv_load_p6ulv21828_2 conn=wye bus1=p6ulv21828.2 kV=0.12 model=7 kW=0.23895996617525225 kvar=-0.0 Phases=1
New Generator.pv_load_p6ulv21831_1 conn=wye bus1=p6ulv21831.1 kV=0.12 model=7 kW=0.47190693361673264 kvar=-0.0 Phases=1
New Generator.pv_load_p6ulv21836_1 conn=wye bus1=p6ulv21836.1 kV=0.12 model=7 kW=0.3171094123527413 kvar=-0.0 Phases=1
New Generator.pv_load_p6ulv23476_2 conn=wye bus1=p6ulv23476.2 kV=0.12 model=7 kW=0.24346858807010738 kvar=-0.0 Phases=1
New Generator.pv_load_p6ulv23478_1 conn=wye bus1=p6ulv23478.1 kV=0.12 model=7 kW=0.23294847031544538 kvar=-0.0 Phases=1
New Generator.pv_load_p6ulv23479_2 conn=wye bus1=p6ulv23479.2 kV=0.12 model=7 kW=0.2449714620350591 kvar=-0.0 Phases=1
New Generator.pv_load_p6ulv23485_1 conn=wye bus1=p6ulv23485.1 kV=0.12 model=7 kW=0.12173399346026069 kvar=-0.0 Phases=1
New Generator.pv_load_p6ulv23486_2 conn=wye bus1=p6ulv23486.2 kV=0.12 model=7 kW=0.1803463786681705 kvar=-0.0 Phases=1
New Generator.pv_load_p6ulv23489_1 conn=wye bus1=p6ulv23489.1 kV=0.12 model=7 kW=0.3050864206331276 kvar=-0.0 Phases=1
New Generator.pv_load_p6ulv23490_1 conn=wye bus1=p6ulv23490.1 kV=0.12 model=7 kW=0.3020806727032242 kvar=-0.0 Phases=1
New Generator.pv_load_p6ulv23494_1 conn=wye bus1=p6ulv23494.1 kV=0.12 model=7 kW=0.24046284014020394 kvar=-0.0 Phases=1
New Generator.pv_load_p6ulv23494_2 conn=wye bus1=p6ulv23494.2 kV=0.12 model=7 kW=0.24046284014020394 kvar=-0.0 Phases=1
New Generator.pv_load_p6ulv23495_2 conn=wye bus1=p6ulv23495.2 kV=0.12 model=7 kW=0.19387224435273592 kvar=-0.0 Phases=1
New Generator.pv_load_p6ulv23496_1 conn=wye bus1=p6ulv23496.1 kV=0.12 model=7 kW=0.16682051298360506 kvar=-0.0 Phases=1
New Generator.pv_load_p6ulv23497_1 conn=wye bus1=p6ulv23497.1 kV=0.12 model=7 kW=0.1803463786681705 kvar=-0.0 Phases=1
New Generator.pv_load_p6ulv23504_1 conn=wye bus1=p6ulv23504.1 kV=0.12 model=7 kW=0.1818492526331222 kvar=-0.0 Phases=1
New Generator.pv_load_p6ulv23504_2 conn=wye bus1=p6ulv23504.2 kV=0.12 model=7 kW=0.1818492526331222 kvar=-0.0 Phases=1
New Generator.pv_load_p6ulv23510_2 conn=wye bus1=p6ulv23510.2 kV=0.12 model=7 kW=0.2554915797897211 kvar=-0.0 Phases=1
New Generator.pv_load_p6ulv23511_1 conn=wye bus1=p6ulv23511.1 kV=0.12 model=7 kW=0.18335212659807393 kvar=-0.0 Phases=1
New Generator.pv_load_p6ulv23511_2 conn=wye bus1=p6ulv23511.2 kV=0.12 model=7 kW=0.18335212659807393 kvar=-0.0 Phases=1
New Generator.pv_load_p6ulv23516_2 conn=wye bus1=p6ulv23516.2 kV=0.12 model=7 kW=0.18786074849292905 kvar=-0.0 Phases=1
New Generator.pv_load_p6ulv23517_2 conn=wye bus1=p6ulv23517.2 kV=0.12 model=7 kW=0.2660116975443831 kvar=-0.0 Phases=1
New Generator.pv_load_p6ulv23521_1 conn=wye bus1=p6ulv23521.1 kV=0.12 model=7 kW=0.17283200884341193 kvar=-0.0 Phases=1
New Generator.pv_load_p6ulv23526_1 conn=wye bus1=p6ulv23526.1 kV=0.12 model=7 kW=0.14427740350932938 kvar=-0.0 Phases=1
New Generator.pv_load_p6ulv23526_2 conn=wye bus1=p6ulv23526.2 kV=0.12 model=7 kW=0.14427740350932938 kvar=-0.0 Phases=1
New Generator.pv_load_p6ulv23531_1 conn=wye bus1=p6ulv23531.1 kV=0.12 model=7 kW=0.2043923621073979 kvar=-0.0 Phases=1
New Generator.pv_load_p6ulv23533_2 conn=wye bus1=p6ulv23533.2 kV=0.12 model=7 kW=0.30358354666817594 kvar=-0.0 Phases=1
New Generator.pv_load_p6ulv23534_2 conn=wye bus1=p6ulv23534.2 kV=0.12 model=7 kW=0.1457802774742811 kvar=-0.0 Phases=1
New Generator.pv_load_p6ulv23535_1 conn=wye bus1=p6ulv23535.1 kV=0.12 model=7 kW=0.14878602540418454 kvar=-0.0 Phases=1
New Generator.pv_load_p6ulv23535_2 conn=wye bus1=p6ulv23535.2 kV=0.12 model=7 kW=0.14878602540418454 kvar=-0.0 Phases=1
New Generator.pv_load_p6ulv23537_2 conn=wye bus1=p6ulv23537.2 kV=0.12 model=7 kW=0.1563003952289431 kvar=-0.0 Phases=1
New Generator.pv_load_p6ulv23538_1 conn=wye bus1=p6ulv23538.1 kV=0.12 model=7 kW=0.16080901712379822 kvar=-0.0 Phases=1
New Generator.pv_load_p6ulv23538_2 conn=wye bus1=p6ulv23538.2 kV=0.12 model=7 kW=0.16080901712379822 kvar=-0.0 Phases=1
New Generator.pv_load_p6ulv23539_1 conn=wye bus1=p6ulv23539.1 kV=0.12 model=7 kW=0.2554915797897211 kvar=-0.0 Phases=1
New Generator.pv_load_p6ulv23540_1 conn=wye bus1=p6ulv23540.1 kV=0.12 model=7 kW=0.3005777987382725 kvar=-0.0 Phases=1
New Generator.pv_load_p6ulv23542_1 conn=wye bus1=p6ulv23542.1 kV=0.12 model=7 kW=0.22994272238554195 kvar=-0.0 Phases=1
New Generator.pv_load_p6ulv23547_2 conn=wye bus1=p6ulv23547.2 kV=0.12 model=7 kW=0.17734063073826706 kvar=-0.0 Phases=1
New Generator.pv_load_p6ulv23552_1 conn=wye bus1=p6ulv23552.1 kV=0.12 model=7 kW=0.3486697656167273 kvar=-0.0 Phases=1
New Generator.pv_load_p6ulv23553_2 conn=wye bus1=p6ulv23553.2 kV=0.12 model=7 kW=0.19387224435273592 kvar=-0.0 Phases=1
New Generator.pv_load_p6ulv23558_2 conn=wye bus1=p6ulv23558.2 kV=0.12 model=7 kW=0.17884350470321878 kvar=-0.0 Phases=1
New Generator.pv_load_p6ulv23559_1 conn=wye bus1=p6ulv23559.1 kV=0.12 model=7 kW=0.4373408324228433 kvar=-0.0 Phases=1
New Generator.pv_load_p6ulv23561_1 conn=wye bus1=p6ulv23561.1 kV=0.12 model=7 kW=0.2675145715093348 kvar=-0.0 Phases=1
New Generator.pv_load_p6ulv23562_1 conn=wye bus1=p6ulv23562.1 kV=0.12 model=7 kW=0.15479752126399138 kvar=-0.0 Phases=1
New Generator.pv_load_p6ulv23564_2 conn=wye bus1=p6ulv23564.2 kV=0.12 model=7 kW=0.4012718572640022 kvar=-0.0 Phases=1
New Generator.pv_load_p6ulv23565_1 conn=wye bus1=p6ulv23565.1 kV=0.12 model=7 kW=0.1923693703877842 kvar=-0.0 Phases=1
New Generator.pv_load_p6ulv23571_2 conn=wye bus1=p6ulv23571.2 kV=0.12 model=7 kW=0.22392972365177016 kvar=-0.0 Phases=1
New Generator.pv_load_p6ulv23572_1 conn=wye bus1=p6ulv23572.1 kV=0.12 model=7 kW=0.2870519330537071 kvar=-0.0 Phases=1
New Generator.pv_load_p6ulv23573_2 conn=wye bus1=p6ulv23573.2 kV=0.12 model=7 kW=0.24196571410515566 kvar=-0.0 Phases=1
New Generator.pv_load_p6ulv23574_1 conn=wye bus1=p6ulv23574.1 kV=0.12 model=7 kW=0.29757205080836907 kvar=-0.0 Phases=1
New Generator.pv_load_p6ulv23576_1 conn=wye bus1=p6ulv23576.1 kV=0.12 model=7 kW=0.21340960589710817 kvar=-0.0 Phases=1