New Load.load_p6ulv972_1 conn=wye bus1=p6ulv972.1 kV=0.12 Vminpu=0.8 Vmaxpu=1.2 model=1 kva=1.460015 pf=1.0 Phases=1
New Load.load_p6ulv973_2 conn=wye bus1=p6ulv973.2 kV=0.12 Vminpu=0.8 Vmaxpu=1.2 model=1 kva=1.82502 pf=1.0 Phases=1
New Load.load_p6ulv2310_2 conn=wye bus1=p6ulv2310.2 kV=0.12 Vminpu=0.8 Vmaxpu=1.2 model=1 kva=0.46500450000000004 pf=1.0 Phases=1
New Load.load_p6ulv2311_2 conn=wye bus1=p6ulv2311.2 kV=0.12 Vminpu=0.8 Vmaxpu=1.2 model=1 kva=1.320015 pf=1.0 Phases=1
New Load.load_p6ulv2312_1 conn=wye bus1=p6ulv2312.1 kV=0.12 Vminpu=0.8 Vmaxpu=1.2 model=1 kva=0.96001 pf=1.0 Phases=1
New Load.load_p6ulv2313_1 conn=wye bus1=p6ulv2313.1 kV=0.12 Vminpu=0.8 Vmaxpu=1.2 model=1 kva=1.23501 pf=1.0 Phases=1
New Load.load_p6ulv2314_1 conn=wye bus1=p6ulv2314.1 kV=0.12 Vminpu=0.8 Vmaxpu=1.2 model=1 kva=1.490015 pf=1.0 Phases=1
New Load.load_p6ulv2314_2 conn=wye bus1=p6ulv2314.2 kV=0.12 Vminpu=0.8 Vmaxpu=1.2 model=1 kva=1.490015 pf=1.0 Phases=1
New Load.load_p6ulv2315_1 conn=wye bus1=p6ulv2315.1 kV=0.12 Vminpu=0.8 Vmaxpu=1.2 model=1 kva=0.78501 pf=1.0 Phases=1
New Load.load_p6ulv2321_1 conn=wye bus1=p6ulv2321.1 kV=0.12 Vminpu=0.8 Vmaxpu=1.2 model=1 kva=0.745005 pf=1.0 Phases=1
New Load.load_p6ulv2322 conn=wye bus1=p6ulv2322.1.2.3 kV=0.48 Vminpu=0.8 Vmaxpu=1.2 model=1 kva=132.761 pf=1.0 Phases=3
New Load.load_p6ulv2327_1 conn=wye bus1=p6ulv2327.1 kV=0.12 Vminpu=0.8 Vmaxpu=1.2 model=1 kva=1.22501 pf=1.0 Phases=1
New Load.load_p6ulv2327_2 conn=wye bus1=p6ulv2327.2 kV=0.12 Vminpu=0.8 Vmaxpu=1.2 model=1 kva=1.22501 pf=1.0 Phases=1
New Load.load_p6ulv2330_2 conn=wye bus1=p6ulv2330.2 kV=0.12 Vminpu=0.8 Vmaxpu=1.2 model=1 kva=0.91001 pf=1.0 Phases=1
New Load.load_p6ulv2331_2 conn=wye bus1=p6ulv2331.2 kV=0.12 Vminpu=0.8 Vmaxpu=1.2 model=1 kva=0.95001 pf=1.0 Phases=1
New Load.load_p6ulv2332_1 conn=wye bus1=p6ulv2332.1 kV=0.12 Vminpu=0.8 Vmaxpu=1.2 model=1 kva=0.9950100000000001 pf=1.0 Phases=1
New Load.load_p6ulv2333_1 conn=wye bus1=p6ulv2333.1 kV=0.12 Vminpu=0.8 Vmaxpu=1.2 model=1 kva=0.565005 pf=1.0 Phases=1
New Load.load_p6ulv2333_2 conn=wye bus1=p6ulv2333.2 kV=0.12 Vminpu=0.8 Vmaxpu=1.2 model=1 kva=0.565005 pf=1.0 Phases=1
New Load.load_p6ulv2334_2 conn=wye bus1=p6ulv2334.2 kV=0.12 Vminpu=0.8 Vmaxpu=1.2 model=1 kva=0.4300045 pf=1.0 Phases=1
New Load.load_p6ulv2335_1 conn=wye bus1=p6ulv2335.1 kV=0.12 Vminpu=0.8 Vmaxpu=1.2 model=1 kva=0.680005 pf=1.0 Phases=1
New Load.load_p6ulv2335_2 conn=wye bus1=p6ulv2335.2 kV=0.12 Vminpu=0.8 Vmaxpu=1.2 model=1 kva=0.680005 pf=1.0 Phases=1
New Load.load_p6ulv2336_1 conn=wye bus1=p6ulv2336.1 kV=0.12 Vminpu=0.8 Vmaxpu=1.2 model=1 kva=0.81501 pf=1.0 Phases=1
New Load.load_p6ulv2337_1 conn=wye bus1=p6ulv2337.1 kV=0.12 Vminpu=0.8 Vmaxpu=1.2 model=1 kva=0.700005 pf=1.0 Phases=1
New Load.load_p6ulv2337_2 conn=wye bus1=p6ulv2337.2 kV=0.12 Vminpu=0.8 Vmaxpu=1.2 model=1 kva=0.700005 pf=1.0 Phases=1
New Load.load_p6ulv2338_2 conn=wye bus1=p6ulv2338.2 kV=0.12 Vminpu=0.8 Vmaxpu=1.2 model=1 kva=1.23001 pf=1.0 Phases=1
New Load.load_p6ulv2339_2 conn=wye bus1=p6ulv2339.2 kV=0.12 Vminpu=0.8 Vmaxpu=1.2 model=1 kva=0.76001 pf=1.0 Phases=1
New Load.load_p6ulv2340_1 conn=wye bus1=p6ulv2340.1 kV=0.12 Vminpu=0.8 Vmaxpu=1.2 model=1 kva=0.76501 pf=1.0 Phases=1
New Load.load_p6ulv2340_2 conn=wye bus1=p6ulv2340.2 kV=0.12 Vminpu=0.8 Vmaxpu=1.2 model=1 kva=0.76501 pf=1.0 Phases=1
New Load.load_p6ulv2341_2 conn=wye bus1=p6ulv2341.2 kV=0.12 Vminpu=0.8 Vmaxpu=1.2 model=1 kva=3.16003 pf=1.0 Phases=1
New Load.load_p6ulv2342_2 conn=wye bus1=p6ulv2342.2 kV=0.12 Vminpu=0.8 Vmaxpu=1.2 model=1 kva=1.22501 pf=1.0 Phases=1
New Load.load_p6ulv2343_1 conn=wye bus1=p6ulv2343.1 kV=0.12 Vminpu=0.8 Vmaxpu=1.2 model=1 kva=0.485005 pf=1.0 Phases=1
New Load.load_p6ulv2343_2 conn=wye bus1=p6ulv2343.2 kV=0.12 Vminpu=0.8 Vmaxpu=1.2 model=1 kva=0.485005 pf=1.0 Phases=1
New Load.load_p6ulv2344_2 conn=wye bus1=p6ulv2344.2 kV=0.12 Vminpu=0.8 Vmaxpu=1.2 model=1 kva=0.81001 pf=1.0 Phases=1
New Load.load_p6ulv2345_1 conn=wye bus1=p6ulv2345.1 kV=0.12 Vminpu=0.8 Vmaxpu=1.2 model=1 kva=0.680005 pf=1.0 Phases=1
New Load.load_p6ulv2345_2 conn=wye bus1=p6ulv2345.2 kV=0.12 Vminpu=0.8 Vmaxpu=1.2 model=1 kva=0.680005 pf=1.0 Phases=1
New Load.load_p6ulv2346_2 conn=wye bus1=p6ulv2346.2 kV=0.12 Vminpu=0.8 Vmaxpu=1.2 model=1 kva=0.710005 pf=1.0 Phases=1
New Load.load_p6ulv2347_1 conn=wye bus1=p6ulv2347.1 kV=0.12 Vminpu=0.8 Vmaxpu=1.2 model=1 kva=1.580015 pf=1.0 Phases=1
New Load.load_p6ulv2347_2 conn=wye bus1=p6ulv2347.2 kV=0.12 Vminpu=0.8 Vmaxpu=1.2 model=1 kva=1.580015 pf=1.0 Phases=1
New Load.load_p6ulv2348_1 conn=wye bus1=p6ulv2348.1 kV=0.12 Vminpu=0.8 Vmaxpu=1.2 model=1 kva=1.10501 pf=1.0 Phases=1
New Load.load_p6ulv2348_2 conn=wye bus1=p6ulv2348.2 kV=0.12 Vminpu=0.8 Vmaxpu=1.2 model=1 kva=1.10501 pf=1.0 Phases=1
New Load.load_p6ulv2349_1 conn=wye bus1=p6ulv2349.1 kV=0.12 Vminpu=0.8 Vmaxpu=1.2 model=1 kva=0.735005 pf=1.0 Phases=1
New Load.load_p6ulv2349_2 conn=wye bus1=p6ulv2349.2 kV=0.12 Vminpu=0.8 Vmaxpu=1.2 model=1 kva=0.735005 pf=1.0 Phases=1
New Load.load_p6ulv2350_1 conn=wye bus1=p6ulv2350.1 kV=0.12 Vminpu=0.8 Vmaxpu=1.2 model=1 kva=1.0600100000000001 pf=1.0 Phases=1
New Load.load_p6ulv2350_2 conn=wye bus1=p6ulv2350.2 kV=0.12 Vminpu=0.8 Vmaxpu=1.2 model=1 kva=1.0600100000000001 pf=1.0 Phases=1
New Load.load_p6ulv2351_1 conn=wye bus1=p6ulv2351.1 kV=0.12 Vminpu=0.8 Vmaxpu=1.2 model=1 kva=0.605005 pf=1.0 Phases=1
New Load.load_p6ulv2351_2 conn=wye bus1=p6ulv2351.2 kV=0.12 Vminpu=0.8 Vmaxpu=1.2 model=1 kva=0.605005 pf=1.0 Phases=1
New Load.load_p6ulv2352_1 conn=wye bus1=p6ulv2352.1 kV=0.12 Vminpu=0.8 Vmaxpu=1.2 model=1 kva=0.84001 pf=1.0 Phases=1
New Load.load_p6ulv2352_2 conn=wye bus1=p6ulv2352.2 kV=0.12 Vminpu=0.8 Vmaxpu=1.2 model=1 kva=0.84001 pf=1.0 Phases=1
New Load.load_p6ulv2353_2 conn=wye bus1=p6ulv2353.2 kV=0.12 Vminpu=0.8 Vmaxpu=1.2 model=1 kva=0.540005 pf=1.0 Phases=1
New Load.load_p6ulv2354_1 conn=wye bus1=p6ulv2354.1 kV=0.12 Vminpu=0.8 Vmaxpu=1.2 model=1 kva=1.05501 pf=1.0 Phases=1
New Load.load_p6ulv2355_2 conn=wye bus1=p6ulv2355.2 kV=0.12 Vminpu=0.8 Vmaxpu=1.2 model=1 kva=0.83001 pf=1.0 Phases=1
New Load.load_p6ulv2356_1 conn=wye bus1=p6ulv2356.1 kV=0.12 Vminpu=0.8 Vmaxpu=1.2 model=1 kva=0.9850100000000002 pf=1.0 Phases=1
New Load.load_p6ulv2357_1 conn=wye bus1=p6ulv2357.1 kV=0.12 Vminpu=0.8 Vmaxpu=1.2 model=1 kva=0.315003 pf=1.0 Phases=1
New Load.load_p6ulv2357_2 conn=wye bus1=p6ulv2357.2 kV=0.12 Vminpu=0.8 Vmaxpu=1.2 model=1 kva=0.315003 pf=1.0 Phases=1
New Load.load_p6ulv2358_2 conn=wye bus1=p6ulv2358.2 kV=0.12 Vminpu=0.8 Vmaxpu=1.2 model=1 kva=1.93502 pf=1.0 Phases=1
New Load.load_p6ulv2359_2 conn=wye bus1=p6ulv2359.2 kV=0.12 Vminpu=0.8 Vmaxpu=1.2 model=1 kva=0.82001 pf=1.0 Phases=1
New Load.load_p6ulv2360_1 conn=wye bus1=p6ulv2360.1 kV=0.12 Vminpu=0.8 Vmaxpu=1.2 model=1 kva=1.340015 pf=1.0 Phases=1
New Load.load_p6ulv2360_2 conn=wye bus1=p6ulv2360.2 kV=0.12 Vminpu=0.8 Vmaxpu=1.2 model=1 kva=1.340015 pf=1.0 Phases=1
New Load.load_p6ulv2361_1 conn=wye bus1=p6ulv2361.1 kV=0.12 Vminpu=0.8 Vmaxpu=1.2 model=1 kva=1.0500100000000003 pf=1.0 Phases=1
New Load.load_p6ulv2361_2 conn=wye bus1=p6ulv2361.2 kV=0.12 Vminpu=0.8 Vmaxpu=1.2 model=1 kva=1.0500100000000003 pf=1.0 Phases=1
New Load.load_p6ulv2362_1 conn=wye bus1=p6ulv2362.1 kV=0.12 Vminpu=0.8 Vmaxpu=1.2 model=1 kva=0.705005 pf=1.0 Phases=1
New Load.load_p6ulv2363_2 conn=wye bus1=p6ulv2363.2 kV=0.12 Vminpu=0.8 Vmaxpu=1.2 model=1 kva=1.14501 pf=1.0 Phases=1
New Load.load_p6ulv2364_1 conn=wye bus1=p6ulv2364.1 kV=0.12 Vminpu=0.8 Vmaxpu=1.2 model=1 kva=0.84001 pf=1.0 Phases=1
New Load.load_p6ulv2364_2 conn=wye bus1=p6ulv2364.2 kV=0.12 Vminpu=0.8 Vmaxpu=1.2 model=1 kva=0.84001 pf=1.0 Phases=1
New Load.load_p6ulv2365_1 conn=wye bus1=p6ulv2365.1 kV=0.12 Vminpu=0.8 Vmaxpu=1.2 model=1 kva=0.595005 pf=1.0 Phases=1
New Load.load_p6ulv2365_2 conn=wye bus1=p6ulv2365.2 kV=0.12 Vminpu=0.8 Vmaxpu=1.2 model=1 kva=0.595005 pf=1.0 Phases=1
New Load.load_p6ulv2366_1 conn=wye bus1=p6ulv2366.1 kV=0.12 Vminpu=0.8 Vmaxpu=1.2 model=1 kva=0.88001 pf=1.0 Phases=1
New Load.load_p6ulv2366_2 conn=wye bus1=p6ulv2366.2 kV=0.12 Vminpu=0.8 Vmaxpu=1.2 model=1 kva=0.88001 pf=1.0 Phases=1
New Load.load_p6ulv2367_2 conn=wye bus1=p6ulv2367.2 kV=0.12 Vminpu=0.8 Vmaxpu=1.2 model=1 kva=0.88501 pf=1.0 Phases=1
New Load.load_p6ulv2368_1 conn=wye bus1=p6ulv2368.1 kV=0.12 Vminpu=0.8 Vmaxpu=1.2 model=1 kva=0.6550050000000001 pf=1.0 Phases=1
New Load.load_p6ulv2368_2 conn=wye bus1=p6ulv2368.2 kV=0.12 Vminpu=0.8 Vmaxpu=1.2 model=1 kva=0.6550050000000001 pf=1.0 Phases=1
New Load.load_p6ulv2369_1 conn=wye bus1=p6ulv2369.1 kV=0.12 Vminpu=0.8 Vmaxpu=1.2 model=1 kva=0.92501 pf=1.0 Phases=1
New Load.load_p6ulv2369_2 conn=wye bus1=p6ulv2369.2 kV=0.12 Vminpu=0.8 Vmaxpu=1.2 model=1 kva=0.92501 pf=1.0 Phases=1
New Load.load_p6ulv2370_2 conn=wye bus1=p6ulv2370.2 kV=0.12 Vminpu=0.8 Vmaxpu=1.2 model=1 kva=0.680005 pf=1.0 Phases=1
New Load.load_p6ulv2371_2 conn=wye bus1=p6ulv2371.2 kV=0.12 Vminpu=0.8 Vmaxpu=1.2 model=1 kva=0.80501 pf=1.0 Phases=1
New Load.load_p6ulv2372_1 conn=wye bus1=p6ulv2372.1 kV=0.12 Vminpu=0.8 Vmaxpu=1.2 model=1 kva=0.480005 pf=1.0 Phases=1
New Load.load_p6ulv2372_2 conn=wye bus1=p6ulv2372.2 kV=0.12 Vminpu=0.8 Vmaxpu=1.2 model=1 kva=0.480005 pf=1.0 Phases=1
New Load.load_p6ulv2373_1 conn=wye bus1=p6ulv2373.1 kV=0.12 Vminpu=0.8 Vmaxpu=1.2 model=1 kva=0.560005 pf=1.0 Phases=1
New Load.load_p6ulv2373_2 conn=wye bus1=p6ulv2373.2 kV=0.12 Vminpu=0.8 Vmaxpu=1.2 model=1 kva=0.560005 pf=1.0 Phases=1
New Load.load_p6ulv2374_2 conn=wye bus1=p6ulv2374.2 kV=0.12 Vminpu=0.8 Vmaxpu=1.2 model=1 kva=0.5300050000000001 pf=1.0 Phases=1
New Load.load_p6ulv2375_1 conn=wye bus1=p6ulv2375.1 kV=0.12 Vminpu=0.8 Vmaxpu=1.2 model=1 kva=0.4550045 pf=1.0 Phases=1
New Load.load_p6ulv2376_1 conn=wye bus1=p6ulv2376.1 kV=0.12 Vminpu=0.8 Vmaxpu=1.2 model=1 kva=0.91001 pf=1.0 Phases=1
New Load.load_p6ulv2376_2 conn=wye bus1=p6ulv2376.2 kV=0.12 Vminpu=0.8 Vmaxpu=1.2 model=1 kva=0.91001 pf=1.0 Phases=1
New Load.load_p6ulv2377_1 conn=wye bus1=p6ulv2377.1 kV=0.12 Vminpu=0.8 Vmaxpu=1.2 model=1 kva=0.590005 pf=1.0 Phases=1
New Load.load_p6ulv2377_2 conn=wye bus1=p6ulv2377.2 kV=0.12 Vminpu=0.8 Vmaxpu=1.2 model=1 kva=0.590005 pf=1.0 Phases=1
New Load.load_p6ulv2378_1 conn=wye bus1=p6ulv2378.1 kV=0.12 Vminpu=0.8 Vmaxpu=1.2 model=1 kva=0.710005 pf=1.0 Phases=1
New Load.load_p6ulv2378_2 conn=wye bus1=p6ulv2378.2 kV=0.12 Vminpu=0.8 Vmaxpu=1.2 model=1 kva=0.710005 pf=1.0 Phases=1
New Load.load_p6ulv2380_1 conn=wye bus1=p6ulv2380.1 kV=0.12 Vminpu=0.8 Vmaxpu=1.2 model=1 kva=0.8650100000000001 pf=1.0 Phases=1
New Load.load_p6ulv2380_2 conn=wye bus1=p6ulv2380.2 kV=0.12 Vminpu=0.8 Vmaxpu=1.2 model=1 kva=0.8650100000000001 pf=1.0 Phases=1
New Load.load_p6ulv2381_1 conn=wye bus1=p6ulv2381.1 kV=0.12 Vminpu=0.8 Vmaxpu=1.2 model=1 kva=0.79001 pf=1.0 Phases=1
New Load.load_p6ulv2381_2 conn=wye bus1=p6ulv2381.2 kV=0.12 Vminpu=0.8 Vmaxpu=1.2 model=1 kva=0.79001 pf=1.0 Phases=1
New Load.load_p6ulv2382_1 conn=wye bus1=p6ulv2382.1 kV=0.12 Vminpu=0.8 Vmaxpu=1.2 model=1 kva=1.20501 pf=1.0 Phases=1
New Load.load_p6ulv2382_2 conn=wye bus1=p6ulv2382.2 kV=0.12 Vminpu=0.8 Vmaxpu=1.2 model=1 kva=1.20501 pf=1.0 Phases=1
New Load.load_p6ulv2383_1 conn=wye bus1=p6ulv2383.1 kV=0.12 Vminpu=0.8 Vmaxpu=1.2 model=1 kva=0.94001 pf=1.0 Phases=1
New Load.load_p6ulv2383_2 conn=wye bus1=p6ulv2383.2 kV=0.12 Vminpu=0.8 Vmaxpu=1.2 model=1 kva=0.94001 pf=1.0 Phases=1
New Load.load_p6ulv2384_2 conn=wye bus1=p6ulv2384.2 kV=0.12 Vminpu=0.8 Vmaxpu=1.2 model=1 kva=0.91501 pf=1.0 Phases=1
New Load.load_p6ulv2386_1 conn=wye bus1=p6ulv2386.1 kV=0.12 Vminpu=0.8 Vmaxpu=1.2 model=1 kva=3.445035 pf=1.0 Phases=1
New Load.load_p6ulv2387_1 conn=wye bus1=p6ulv2387.1 kV=0.12 Vminpu=0.8 Vmaxpu=1.2 model=1 kva=1.725015 pf=1.0 Phases=1
New Load.load_p6ulv2387_2 conn=wye bus1=p6ulv2387.2 kV=0.12 Vminpu=0.8 Vmaxpu=1.2 model=1 kva=1.725015 pf=1.0 Phases=1
New Load.load_p6ulv2388_1 conn=wye bus1=p6ulv2388.1 kV=0.12 Vminpu=0.8 Vmaxpu=1.2 model=1 kva=1.77502 pf=1.0 Phases=1
New Load.load_p6ulv2388_2 conn=wye bus1=p6ulv2388.2 kV=0.12 Vminpu=0.8 Vmaxpu=1.2 model=1 kva=1.77502 pf=1.0 Phases=1
New Load.load_p6ulv2389_1 conn=wye bus1=p6ulv2389.1 kV=0.12 Vminpu=0.8 Vmaxpu=1.2 model=1 kva=1.00501 pf=1.0 Phases=1
New Load.load_p6ulv2389_2 conn=wye bus1=p6ulv2389.2 kV=0.12 Vminpu=0.8 Vmaxpu=1.2 model=1 kva=1.00501 pf=1.0 Phases=1
New Load.load_p6ulv2390_1 conn=wye bus1=p6ulv2390.1 kV=0.12 Vminpu=0.8 Vmaxpu=1.2 model=1 kva=1.15501 pf=1.0 Phases=1
New Load.load_p6ulv2390_2 conn=wye bus1=p6ulv2390.2 kV=0.12 Vminpu=0.8 Vmaxpu=1.2 model=1 kva=1.15501 pf=1.0 Phases=1
New Load.load_p6ulv2391_1 conn=wye bus1=p6ulv2391.1 kV=0.12 Vminpu=0.8 Vmaxpu=1.2 model=1 kva=0.83501 pf=1.0 Phases=1
New Load.load_p6ulv2391_2 conn=wye bus1=p6ulv2391.2 kV=0.12 Vminpu=0.8 Vmaxpu=1.2 model=1 kva=0.83501 pf=1.0 Phases=1
New Load.load_p6ulv2392_1 conn=wye bus1=p6ulv2392.1 kV=0.12 Vminpu=0.8 Vmaxpu=1.2 model=1 kva=1.18001 pf=1.0 Phases=1
New Load.load_p6ulv2392_2 conn=wye bus1=p6ulv2392.2 kV=0.12 Vminpu=0.8 Vmaxpu=1.2 model=1 kva=1.18001 pf=1.0 Phases=1
New Load.load_p6ulv2393_1 conn=wye bus1=p6ulv2393.1 kV=0.12 Vminpu=0.8 Vmaxpu=1.2 model=1 kva=0.3500035 pf=1.0 Phases=1
New Load.load_p6ulv2393_2 conn=wye bus1=p6ulv2393.2 kV=0.12 Vminpu=0.8 Vmaxpu=1.2 model=1 kva=0.3500035 pf=1.0 Phases=1
New Load.load_p6ulv2396_1 conn=wye bus1=p6ulv2396.1 kV=0.12 Vminpu=0.8 Vmaxpu=1.2 model=1 kva=1.490015 pf=1.0 Phases=1
New Load.load_p6ulv2396_2 conn=wye bus1=p6ulv2396.2 kV=0.12 Vminpu=0.8 Vmaxpu=1.2 model=1 kva=1.490015 pf=1.0 Phases=1
New Load.load_p6ulv2397_1 conn=wye bus1=p6ulv2397.1 kV=0.12 Vminpu=0.8 Vmaxpu=1.2 model=1 kva=1.485015 pf=1.0 Phases=1
New Load.load_p6ulv2398_1 conn=wye bus1=p6ulv2398.1 kV=0.12 Vminpu=0.8 Vmaxpu=1.2 model=1 kva=0.98001 pf=1.0 Phases=1
New Load.load_p6ulv2399_1 conn=wye bus1=p6ulv2399.1 kV=0.12 Vminpu=0.8 Vmaxpu=1.2 model=1 kva=1.325015 pf=1.0 Phases=1
New Load.load_p6ulv2399_2 conn=wye bus1=p6ulv2399.2 kV=0.12 Vminpu=0.8 Vmaxpu=1.2 model=1 kva=1.325015 pf=1.0 Phases=1
New Load.load_p6ulv2400_1 conn=wye bus1=p6ulv2400.1 kV=0.12 Vminpu=0.8 Vmaxpu=1.2 model=1 kva=1.445015 pf=1.0 Phases=1
New Load.load_p6ulv2400_2 conn=wye bus1=p6ulv2400.2 kV=0.12 Vminpu=0.8 Vmaxpu=1.2 model=1 kva=1.445015 pf=1.0 Phases=1
New Load.load_p6ulv2401_2 conn=wye bus1=p6ulv2401.2 kV=0.12 Vminpu=0.8 Vmaxpu=1.2 model=1 kva=1.445015 pf=1.0 Phases=1
New Load.load_p6ulv2402_1 conn=wye bus1=p6ulv2402.1 kV=0.12 Vminpu=0.8 Vmaxpu=1.2 model=1 kva=0.94501 pf=1.0 Phases=1
New Load.load_p6ulv2402_2 conn=wye bus1=p6ulv2402.2 kV=0.12 Vminpu=0.8 Vmaxpu=1.2 model=1 kva=0.94501 pf=1.0 Phases=1
New Load.load_p6ulv2403_1 conn=wye bus1=p6ulv2403.1 kV=0.12 Vminpu=0.8 Vmaxpu=1.2 model=1 kva=0.94001 pf=1.0 Phases=1
New Load.load_p6ulv2403_2 conn=wye bus1=p6ulv2403.2 kV=0.12 Vminpu=0.8 Vmaxpu=1.2 model=1 kva=0.94001 pf=1.0 Phases=1
New Load.load_p6ulv2404_1 conn=wye bus1=p6ulv2404.1 kV=0.12 Vminpu=0.8 Vmaxpu=1.2 model=1 kva=1.0500100000000003 pf=1.0 Phases=1
New Load.load_p6ulv2404_2 conn=wye bus1=p6ulv2404.2 kV=0.12 Vminpu=0.8 Vmaxpu=1.2 model=1 kva=1.0500100000000003 pf=1.0 Phases=1
New Load.load_p6ulv2406_1 conn=wye bus1=p6ulv2406.1 kV=0.12 Vminpu=0.8 Vmaxpu=1.2 model=1 kva=1.93502 pf=1.0 Phases=1
New Load.load_p6ulv2406_2 conn=wye bus1=p6ulv2406.2 kV=0.12 Vminpu=0.8 Vmaxpu=1.2 model=1 kva=1.93502 pf=1.0 Phases=1
New Load.load_p6ulv2407_2 conn=wye bus1=p6ulv2407.2 kV=0.12 Vminpu=0.8 Vmaxpu=1.2 model=1 kva=1.13001 pf=1.0 Phases=1
New Load.load_p6ulv2408_1 conn=wye bus1=p6ulv2408.1 kV=0.12 Vminpu=0.8 Vmaxpu=1.2 model=1 kva=1.2550150000000002 pf=1.0 Phases=1
New Load.load_p6ulv2408_2 conn=wye bus1=p6ulv2408.2 kV=0.12 Vminpu=0.8 Vmaxpu=1.2 model=1 kva=1.2550150000000002 pf=1.0 Phases=1
New Load.load_p6ulv2409_1 conn=wye bus1=p6ulv2409.1 kV=0.12 Vminpu=0.8 Vmaxpu=1.2 model=1 kva=2.01002 pf=1.0 Phases=1
New Load.load_p6ulv2410_2 conn=wye bus1=p6ulv2410.2 kV=0.12 Vminpu=0.8 Vmaxpu=1.2 model=1 kva=0.85001 pf=1.0 Phases=1
New Load.load_p6ulv2411_1 conn=wye bus1=p6ulv2411.1 kV=0.12 Vminpu=0.8 Vmaxpu=1.2 model=1 kva=0.745005 pf=1.0 Phases=1
New Load.load_p6ulv2412_1 conn=wye bus1=p6ulv2412.1 kV=0.12 Vminpu=0.8 Vmaxpu=1.2 model=1 kva=0.690005 pf=1.0 Phases=1
New Load.load_p6ulv2413_1 conn=wye bus1=p6ulv2413.1 kV=0.12 Vminpu=0.8 Vmaxpu=1.2 model=1 kva=0.81001 pf=1.0 Phases=1
New Load.load_p6ulv2413_2 conn=wye bus1=p6ulv2413.2 kV=0.12 Vminpu=0.8 Vmaxpu=1.2 model=1 kva=0.81001 pf=1.0 Phases=1
New Load.load_p6ulv2414_2 conn=wye bus1=p6ulv2414.2 kV=0.12 Vminpu=0.8 Vmaxpu=1.2 model=1 kva=0.9900100000000001 pf=1.0 Phases=1
New Load.load_p6ulv2416_1 conn=wye bus1=p6ulv2416.1 kV=0.12 Vminpu=0.8 Vmaxpu=1.2 model=1 kva=0.3250035 pf=1.0 Phases=1
New Load.load_p6ulv2416_2 conn=wye bus1=p6ulv2416.2 kV=0.12 Vminpu=0.8 Vmaxpu=1.2 model=1 kva=0.3250035 pf=1.0 Phases=1
New Load.load_p6ulv2417_2 conn=wye bus1=p6ulv2417.2 kV=0.12 Vminpu=0.8 Vmaxpu=1.2 model=1 kva=0.3650035 pf=1.0 Phases=1
New Load.load_p6ulv2418_1 conn=wye bus1=p6ulv2418.1 kV=0.12 Vminpu=0.8 Vmaxpu=1.2 model=1 kva=0.385004 pf=1.0 Phases=1
New Load.load_p6ulv2418_2 conn=wye bus1=p6ulv2418.2 kV=0.12 Vminpu=0.8 Vmaxpu=1.2 model=1 kva=0.385004 pf=1.0 Phases=1
New Load.load_p6ulv2419_1 conn=wye bus1=p6ulv2419.1 kV=0.12 Vminpu=0.8 Vmaxpu=1.2 model=1 kva=0.3600035 pf=1.0 Phases=1
New Load.load_p6ulv2419_2 conn=wye bus1=p6ulv2419.2 kV=0.12 Vminpu=0.8 Vmaxpu=1.2 model=1 kva=0.3600035 pf=1.0 Phases=1
New Load.load_p6ulv2421_1 conn=wye bus1=p6ulv2421.1 kV=0.12 Vminpu=0.8 Vmaxpu=1.2 model=1 kva=0.2700025 pf=1.0 Phases=1
New Load.load_p6ulv2421_2 conn=wye bus1=p6ulv2421.2 kV=0.12 Vminpu=0.8 Vmaxpu=1.2 model=1 kva=0.2700025 pf=1.0 Phases=1
New Load.load_p6ulv2422_1 conn=wye bus1=p6ulv2422.1 kV=0.12 Vminpu=0.8 Vmaxpu=1.2 model=1 kva=0.79001 pf=1.0 Phases=1
New Load.load_p6ulv2423_1 conn=wye bus1=p6ulv2423.1 kV=0.12 Vminpu=0.8 Vmaxpu=1.2 model=1 kva=0.385004 pf=1.0 Phases=1
New Load.load_p6ulv2423_2 conn=wye bus1=p6ulv2423.2 kV=0.12 Vminpu=0.8 Vmaxpu=1.2 model=1 kva=0.385004 pf=1.0 Phases=1
New Load.load_p6ulv2424_1 conn=wye bus1=p6ulv2424.1 kV=0.12 Vminpu=0.8 Vmaxpu=1.2 model=1 kva=1.260015 pf=1.0 Phases=1
New Load.load_p6ulv2425_1 conn=wye bus1=p6ulv2425.1 kV=0.12 Vminpu=0.8 Vmaxpu=1.2 model=1 kva=0.540005 pf=1.0 Phases=1
New Load.load_p6ulv2425_2 conn=wye bus1=p6ulv2425.2 kV=0.12 Vminpu=0.8 Vmaxpu=1.2 model=1 kva=0.540005 pf=1.0 Phases=1
New Load.load_p6ulv2426_1 conn=wye bus1=p6ulv2426.1 kV=0.12 Vminpu=0.8 Vmaxpu=1.2 model=1 kva=1.445015 pf=1.0 Phases=1
New Load.load_p6ulv2426_2 conn=wye bus1=p6ulv2426.2 kV=0.12 Vminpu=0.8 Vmaxpu=1.2 model=1 kva=1.445015 pf=1.0 Phases=1
New Load.load_p6ulv2427_1 conn=wye bus1=p6ulv2427.1 kV=0.12 Vminpu=0.8 Vmaxpu=1.2 model=1 kva=0.535005 pf=1.0 Phases=1
New Load.load_p6ulv2427_2 conn=wye bus1=p6ulv2427.2 kV=0.12 Vminpu=0.8 Vmaxpu=1.2 model=1 kva=0.535005 pf=1.0 Phases=1
New Load.load_p6ulv2429 conn=wye bus1=p6ulv2429.1.2.3 kV=0.48 Vminpu=0.8 Vmaxpu=1.2 model=1 kva=56.70060000000001 pf=1.0 Phases=3
New Load.load_p6ulv2434 conn=wye bus1=p6ulv2434.1.2.3 kV=0.48 Vminpu=0.8 Vmaxpu=1.2 model=1 kva=92.9509 pf=1.0 Phases=3
New Load.load_p6ulv2439_1 conn=wye bus1=p6ulv2439.1 kV=0.12 Vminpu=0.8 Vmaxpu=1.2 model=1 kva=6.22005 pf=1.0 Phases=1
New Load.load_p6ulv2439_2 conn=wye bus1=p6ulv2439.2 kV=0.12 Vminpu=0.8 Vmaxpu=1.2 model=1 kva=6.22005 pf=1.0 Phases=1
New Load.load_p6ulv2440_1 conn=wye bus1=p6ulv2440.1 kV=0.12 Vminpu=0.8 Vmaxpu=1.2 model=1 kva=3.4100350000000006 pf=1.0 Phases=1
New Load.load_p6ulv2440_2 conn=wye bus1=p6ulv2440.2 kV=0.12 Vminpu=0.8 Vmaxpu=1.2 model=1 kva=3.4100350000000006 pf=1.0 Phases=1
New Load.load_p6ulv2441_1 conn=wye bus1=p6ulv2441.1 kV=0.12 Vminpu=0.8 Vmaxpu=1.2 model=1 kva=1.08501 pf=1.0 Phases=1
New Load.load_p6ulv2441_2 conn=wye bus1=p6ulv2441.2 kV=0.12 Vminpu=0.8 Vmaxpu=1.2 model=1 kva=1.08501 pf=1.0 Phases=1
New Load.load_p6ulv2443_1 conn=wye bus1=p6ulv2443.1 kV=0.12 Vminpu=0.8 Vmaxpu=1.2 model=1 kva=0.79501 pf=1.0 Phases=1
New Load.load_p6ulv2444_1 conn=wye bus1=p6ulv2444.1 kV=0.12 Vminpu=0.8 Vmaxpu=1.2 model=1 kva=0.83501 pf=1.0 Phases=1
New Load.load_p6ulv2444_2 conn=wye bus1=p6ulv2444.2 kV=0.12 Vminpu=0.8 Vmaxpu=1.2 model=1 kva=0.83501 pf=1.0 Phases=1
New Load.load_p6ulv2445_1 conn=wye bus1=p6ulv2445.1 kV=0.12 Vminpu=0.8 Vmaxpu=1.2 model=1 kva=0.6500050000000002 pf=1.0 Phases=1
New Load.load_p6ulv2445_2 conn=wye bus1=p6ulv2445.2 kV=0.12 Vminpu=0.8 Vmaxpu=1.2 model=1 kva=0.6500050000000002 pf=1.0 Phases=1
New Load.load_p6ulv2446_2 conn=wye bus1=p6ulv2446.2 kV=0.12 Vminpu=0.8 Vmaxpu=1.2 model=1 kva=0.515005 pf=1.0 Phases=1
New Load.load_p6ulv2447_1 conn=wye bus1=p6ulv2447.1 kV=0.12 Vminpu=0.8 Vmaxpu=1.2 model=1 kva=0.75501 pf=1.0 Phases=1
New Load.load_p6ulv2448_1 conn=wye bus1=p6ulv2447.1 kV=0.12 Vminpu=0.8 Vmaxpu=1.2 model=1 kva=0.610005 pf=1.0 Phases=1
New Load.load_p6ulv2449_2 conn=wye bus1=p6ulv2449.2 kV=0.12 Vminpu=0.8 Vmaxpu=1.2 model=1 kva=0.580005 pf=1.0 Phases=1
New Load.load_p6ulv2450_2 conn=wye bus1=p6ulv2450.2 kV=0.12 Vminpu=0.8 Vmaxpu=1.2 model=1 kva=0.595005 pf=1.0 Phases=1
New Load.load_p6ulv2451_1 conn=wye bus1=p6ulv2451.1 kV=0.12 Vminpu=0.8 Vmaxpu=1.2 model=1 kva=0.3600035 pf=1.0 Phases=1
New Load.load_p6ulv2451_2 conn=wye bus1=p6ulv2451.2 kV=0.12 Vminpu=0.8 Vmaxpu=1.2 model=1 kva=0.3600035 pf=1.0 Phases=1
New Load.load_p6ulv2452_1 conn=wye bus1=p6ulv2452.1 kV=0.12 Vminpu=0.8 Vmaxpu=1.2 model=1 kva=0.605005 pf=1.0 Phases=1
New Load.load_p6ulv2453_1 conn=wye bus1=p6ulv2453.1 kV=0.12 Vminpu=0.8 Vmaxpu=1.2 model=1 kva=0.550005 pf=1.0 Phases=1
New Load.load_p6ulv2453_2 conn=wye bus1=p6ulv2453.2 kV=0.12 Vminpu=0.8 Vmaxpu=1.2 model=1 kva=0.550005 pf=1.0 Phases=1
New Load.load_p6ulv2454_1 conn=wye bus1=p6ulv2454.1 kV=0.12 Vminpu=0.8 Vmaxpu=1.2 model=1 kva=0.595005 pf=1.0 Phases=1
New Load.load_p6ulv2454_2 conn=wye bus1=p6ulv2454.2 kV=0.12 Vminpu=0.8 Vmaxpu=1.2 model=1 kva=0.595005 pf=1.0 Phases=1
New Load.load_p6ulv2455_1 conn=wye bus1=p6ulv2455.1 kV=0.12 Vminpu=0.8 Vmaxpu=1.2 model=1 kva=0.725005 pf=1.0 Phases=1
New Load.load_p6ulv3610_1 conn=wye bus1=p6ulv3610.1 kV=0.12 Vminpu=0.8 Vmaxpu=1.2 model=1 kva=0.96001 pf=1.0 Phases=1
New Load.load_p6ulv3610_2 conn=wye bus1=p6ulv3610.2 kV=0.12 Vminpu=0.8 Vmaxpu=1.2 model=1 kva=0.96001 pf=1.0 Phases=1
New Load.load_p6ulv3611_1 conn=wye bus1=p6ulv3611.1 kV=0.12 Vminpu=0.8 Vmaxpu=1.2 model=1 kva=0.4350045 pf=1.0 Phases=1
New Load.load_p6ulv3611_2 conn=wye bus1=p6ulv3611.2 kV=0.12 Vminpu=0.8 Vmaxpu=1.2 model=1 kva=0.4350045 pf=1.0 Phases=1
New Load.load_p6ulv3612_1 conn=wye bus1=p6ulv3612.1 kV=0.12 Vminpu=0.8 Vmaxpu=1.2 model=1 kva=0.705005 pf=1.0 Phases=1
New Load.load_p6ulv3612_2 conn=wye bus1=p6ulv3612.2 kV=0.12 Vminpu=0.8 Vmaxpu=1.2 model=1 kva=0.705005 pf=1.0 Phases=1
New Load.load_p6ulv3613_1 conn=wye bus1=p6ulv3613.1 kV=0.12 Vminpu=0.8 Vmaxpu=1.2 model=1 kva=1.6500150000000002 pf=1.0 Phases=1
New Load.load_p6ulv3624_1 conn=wye bus1=p6ulv3624.1 kV=0.12 Vminpu=0.8 Vmaxpu=1.2 model=1 kva=0.550005 pf=1.0 Phases=1
New Load.load_p6ulv3627_1 conn=wye bus1=p6ulv3627.1 kV=0.12 Vminpu=0.8 Vmaxpu=1.2 model=1 kva=0.80001 pf=1.0 Phases=1
New Load.load_p6ulv4274_1 conn=wye bus1=p6ulv4274.1 kV=0.12 Vminpu=0.8 Vmaxpu=1.2 model=1 kva=0.90001 pf=1.0 Phases=1
New Load.load_p6ulv4274_2 conn=wye bus1=p6ulv4274.2 kV=0.12 Vminpu=0.8 Vmaxpu=1.2 model=1 kva=0.90001 pf=1.0 Phases=1
New Load.load_p6ulv4275_1 conn=wye bus1=p6ulv4275.1 kV=0.12 Vminpu=0.8 Vmaxpu=1.2 model=1 kva=1.14001 pf=1.0 Phases=1
New Load.load_p6ulv4275_2 conn=wye bus1=p6ulv4275.2 kV=0.12 Vminpu=0.8 Vmaxpu=1.2 model=1 kva=1.14001 pf=1.0 Phases=1
New Load.load_p6ulv4276_1 conn=wye bus1=p6ulv4276.1 kV=0.12 Vminpu=0.8 Vmaxpu=1.2 model=1 kva=0.715005 pf=1.0 Phases=1
New Load.load_p6ulv4277_2 conn=wye bus1=p6ulv4277.2 kV=0.12 Vminpu=0.8 Vmaxpu=1.2 model=1 kva=0.735005 pf=1.0 Phases=1
New Load.load_p6ulv4278_2 conn=wye bus1=p6ulv4278.2 kV=0.12 Vminpu=0.8 Vmaxpu=1.2 model=1 kva=0.535005 pf=1.0 Phases=1
New Load.load_p6ulv4279_1 conn=wye bus1=p6ulv4279.1 kV=0.12 Vminpu=0.8 Vmaxpu=1.2 model=1 kva=1.00001 pf=1.0 Phases=1
New Load.load_p6ulv4279_2 conn=wye bus1=p6ulv4279.2 kV=0.12 Vminpu=0.8 Vmaxpu=1.2 model=1 kva=1.00001 pf=1.0 Phases=1
New Load.load_p6ulv4280_1 conn=wye bus1=p6ulv4280.1 kV=0.12 Vminpu=0.8 Vmaxpu=1.2 model=1 kva=4.90005 pf=1.0 Phases=1
New Load.load_p6ulv4280_2 conn=wye bus1=p6ulv4280.2 kV=0.12 Vminpu=0.8 Vmaxpu=1.2 model=1 kva=4.90005 pf=1.0 Phases=1
New Load.load_p6ulv4282_1 conn=wye bus1=p6ulv4282.1 kV=0.12 Vminpu=0.8 Vmaxpu=1.2 model=1 kva=1.500015 pf=1.0 Phases=1
New Load.load_p6ulv4282_2 conn=wye bus1=p6ulv4282.2 kV=0.12 Vminpu=0.8 Vmaxpu=1.2 model=1 kva=1.500015 pf=1.0 Phases=1
New Load.load_p6ulv4283 conn=wye bus1=p6ulv4283.1.2.3 kV=0.48 Vminpu=0.8 Vmaxpu=1.2 model=1 kva=28.540300000000002 pf=1.0 Phases=3
New Load.load_p6ulv4284 conn=wye bus1=p6ulv4284.1.2.3 kV=0.48 Vminpu=0.8 Vmaxpu=1.2 model=1 kva=26.5403 pf=1.0 Phases=3
New Load.load_p6ulv4285_1 conn=wye bus1=p6ulv4285.1 kV=0.12 Vminpu=0.8 Vmaxpu=1.2 model=1 kva=2.18002 pf=1.0 Phases=1
New Load.load_p6ulv4285_2 conn=wye bus1=p6ulv4285.2 kV=0.12 Vminpu=0.8 Vmaxpu=1.2 model=1 kva=2.18002 pf=1.0 Phases=1
New Load.load_p6ulv4286_1 conn=wye bus1=p6ulv4286.1 kV=0.12 Vminpu=0.8 Vmaxpu=1.2 model=1 kva=2.740025 pf=1.0 Phases=1
New Load.load_p6ulv4286_2 conn=wye bus1=p6ulv4286.2 kV=0.12 Vminpu=0.8 Vmaxpu=1.2 model=1 kva=2.740025 pf=1.0 Phases=1
New Load.load_p6ulv4287_2 conn=wye bus1=p6ulv4287.2 kV=0.12 Vminpu=0.8 Vmaxpu=1.2 model=1 kva=4.80505 pf=1.0 Phases=1
New Load.load_p6ulv4288_1 conn=wye bus1=p6ulv4288.1 kV=0.12 Vminpu=0.8 Vmaxpu=1.2 model=1 kva=4.615045 pf=1.0 Phases=1
New Load.load_p6ulv4289_1 conn=wye bus1=p6ulv4289.1 kV=0.12 Vminpu=0.8 Vmaxpu=1.2 model=1 kva=5.27005 pf=1.0 Phases=1
New Load.load_p6ulv4290_1 conn=wye bus1=p6ulv4290.1 kV=0.12 Vminpu=0.8 Vmaxpu=1.2 model=1 kva=1.435015 pf=1.0 Phases=1
New Load.load_p6ulv4290_2 conn=wye bus1=p6ulv4290.2 kV=0.12 Vminpu=0.8 Vmaxpu=1.2 model=1 kva=1.435015 pf=1.0 Phases=1
New Load.load_p6ulv4291_1 conn=wye bus1=p6ulv4291.1 kV=0.12 Vminpu=0.8 Vmaxpu=1.2 model=1 kva=0.720005 pf=1.0 Phases=1
New Load.load_p6ulv4291_2 conn=wye bus1=p6ulv4291.2 kV=0.12 Vminpu=0.8 Vmaxpu=1.2 model=1 kva=0.720005 pf=1.0 Phases=1
New Load.load_p6ulv4293_1 conn=wye bus1=p6ulv4293.1 kV=0.12 Vminpu=0.8 Vmaxpu=1.2 model=1 kva=0.420004 pf=1.0 Phases=1
New Load.load_p6ulv4293_2 conn=wye bus1=p6ulv4293.2 kV=0.12 Vminpu=0.8 Vmaxpu=1.2 model=1 kva=0.420004 pf=1.0 Phases=1
New Load.load_p6ulv4294_2 conn=wye bus1=p6ulv4294.2 kV=0.12 Vminpu=0.8 Vmaxpu=1.2 model=1 kva=0.5300050000000001 pf=1.0 Phases=1
New Load.load_p6ulv4295_1 conn=wye bus1=p6ulv4295.1 kV=0.12 Vminpu=0.8 Vmaxpu=1.2 model=1 kva=0.615005 pf=1.0 Phases=1
New Load.load_p6ulv4295_2 conn=wye bus1=p6ulv4295.2 kV=0.12 Vminpu=0.8 Vmaxpu=1.2 model=1 kva=0.615005 pf=1.0 Phases=1
New Load.load_p6ulv4296_1 conn=wye bus1=p6ulv4296.1 kV=0.12 Vminpu=0.8 Vmaxpu=1.2 model=1 kva=1.77002 pf=1.0 Phases=1
New Load.load_p6ulv4297_2 conn=wye bus1=p6ulv4297.2 kV=0.12 Vminpu=0.8 Vmaxpu=1.2 model=1 kva=2.00002 pf=1.0 Phases=1
New Load.load_p6ulv4298_2 conn=wye bus1=p6ulv4298.2 kV=0.12 Vminpu=0.8 Vmaxpu=1.2 model=1 kva=2.4600250000000004 pf=1.0 Phases=1
New Load.load_p6ulv4299_2 conn=wye bus1=p6ulv4299.2 kV=0.12 Vminpu=0.8 Vmaxpu=1.2 model=1 kva=1.665015 pf=1.0 Phases=1
New Load.load_p6ulv4300_1 conn=wye bus1=p6ulv4300.1 kV=0.12 Vminpu=0.8 Vmaxpu=1.2 model=1 kva=1.305015 pf=1.0 Phases=1
New Load.load_p6ulv4301_1 conn=wye bus1=p6ulv4301.1 kV=0.12 Vminpu=0.8 Vmaxpu=1.2 model=1 kva=0.85001 pf=1.0 Phases=1
New Load.load_p6ulv4301_2 conn=wye bus1=p6ulv4301.2 kV=0.12 Vminpu=0.8 Vmaxpu=1.2 model=1 kva=0.85001 pf=1.0 Phases=1
New Load.load_p6ulv4302_1 conn=wye bus1=p6ulv4302.1 kV=0.12 Vminpu=0.8 Vmaxpu=1.2 model=1 kva=0.630005 pf=1.0 Phases=1
New Load.load_p6ulv4302_2 conn=wye bus1=p6ulv4302.2 kV=0.12 Vminpu=0.8 Vmaxpu=1.2 model=1 kva=0.630005 pf=1.0 Phases=1
New Load.load_p6ulv4303_1 conn=wye bus1=p6ulv4303.1 kV=0.12 Vminpu=0.8 Vmaxpu=1.2 model=1 kva=0.685005 pf=1.0 Phases=1
New Load.load_p6ulv4303_2 conn=wye bus1=p6ulv4303.2 kV=0.12 Vminpu=0.8 Vmaxpu=1.2 model=1 kva=0.685005 pf=1.0 Phases=1
New Load.load_p6ulv4304_1 conn=wye bus1=p6ulv4304.1 kV=0.12 Vminpu=0.8 Vmaxpu=1.2 model=1 kva=3.12003 pf=1.0 Phases=1
New Load.load_p6ulv4304_2 conn=wye bus1=p6ulv4304.2 kV=0.12 Vminpu=0.8 Vmaxpu=1.2 model=1 kva=3.12003 pf=1.0 Phases=1
New Load.load_p6ulv4305_1 conn=wye bus1=p6ulv4305.1 kV=0.12 Vminpu=0.8 Vmaxpu=1.2 model=1 kva=2.16002 pf=1.0 Phases=1
New Load.load_p6ulv4305_2 conn=wye bus1=p6ulv4305.2 kV=0.12 Vminpu=0.8 Vmaxpu=1.2 model=1 kva=2.16002 pf=1.0 Phases=1
New Load.load_p6ulv4306_1 conn=wye bus1=p6ulv4306.1 kV=0.12 Vminpu=0.8 Vmaxpu=1.2 model=1 kva=5.26005 pf=1.0 Phases=1
New Load.load_p6ulv4306_2 conn=wye bus1=p6ulv4306.2 kV=0.12 Vminpu=0.8 Vmaxpu=1.2 model=1 kva=5.26005 pf=1.0 Phases=1
New Load.load_p6ulv4307_1 conn=wye bus1=p6ulv4307.1 kV=0.12 Vminpu=0.8 Vmaxpu=1.2 model=1 kva=0.33000350000000006 pf=1.0 Phases=1
New Load.load_p6ulv4307_2 conn=wye bus1=p6ulv4307.2 kV=0.12 Vminpu=0.8 Vmaxpu=1.2 model=1 kva=0.33000350000000006 pf=1.0 Phases=1
New Load.load_p6ulv4308_2 conn=wye bus1=p6ulv4308.2 kV=0.12 Vminpu=0.8 Vmaxpu=1.2 model=1 kva=1.565015 pf=1.0 Phases=1
New Load.load_p6ulv4309_1 conn=wye bus1=p6ulv4309.1 kV=0.12 Vminpu=0.8 Vmaxpu=1.2 model=1 kva=1.80502 pf=1.0 Phases=1
New Load.load_p6ulv4310_1 conn=wye bus1=p6ulv4310.1 kV=0.12 Vminpu=0.8 Vmaxpu=1.2 model=1 kva=1.6500150000000002 pf=1.0 Phases=1
New Load.load_p6ulv4310_2 conn=wye bus1=p6ulv4310.2 kV=0.12 Vminpu=0.8 Vmaxpu=1.2 model=1 kva=1.6500150000000002 pf=1.0 Phases=1
New Load.load_p6ulv8198_1 conn=wye bus1=p6ulv8198.1 kV=0.12 Vminpu=0.8 Vmaxpu=1.2 model=1 kva=0.610005 pf=1.0 Phases=1
New Load.load_p6ulv8199_1 conn=wye bus1=p6ulv8199.1 kV=0.12 Vminpu=0.8 Vmaxpu=1.2 model=1 kva=0.590005 pf=1.0 Phases=1
New Load.load_p6ulv8199_2 conn=wye bus1=p6ulv8199.2 kV=0.12 Vminpu=0.8 Vmaxpu=1.2 model=1 kva=0.590005 pf=1.0 Phases=1
New Load.load_p6ulv8200_1 conn=wye bus1=p6ulv8200.1 kV=0.12 Vminpu=0.8 Vmaxpu=1.2 model=1 kva=7.13505 pf=1.0 Phases=1