New Load.motor_load_p6ulv972_2 conn=wye bus1=p6ulv972.2 kV=0.12 kW=1.0524978712208666 kvar=0.21049957424417332 Phases=1 Vminpu=0.0 Vmaxpu=1.2 model=1
New Load.motor_load_p6ulv973_1 conn=wye bus1=p6ulv973.1 kV=0.12 kW=1.17776895276764 kvar=0.23555379055352801 Phases=1 Vminpu=0.0 Vmaxpu=1.2 model=1
New Load.motor_load_p6ulv2310_1 conn=wye bus1=p6ulv2310.1 kV=0.12 kW=1.2040818460700786 kvar=0.24081636921401572 Phases=1 Vminpu=0.0 Vmaxpu=1.2 model=1
New Load.motor_load_p6ulv2311_1 conn=wye bus1=p6ulv2311.1 kV=0.12 kW=1.1471589609426427 kvar=0.22943179218852855 Phases=1 Vminpu=0.0 Vmaxpu=1.2 model=1
New Load.motor_load_p6ulv2312_2 conn=wye bus1=p6ulv2312.2 kV=0.12 kW=1.2050078462238396 kvar=0.24100156924476793 Phases=1 Vminpu=0.0 Vmaxpu=1.2 model=1
New Load.motor_load_p6ulv2313_2 conn=wye bus1=p6ulv2313.2 kV=0.12 kW=1.1152482029840027 kvar=0.22304964059680055 Phases=1 Vminpu=0.0 Vmaxpu=1.2 model=1
New Load.motor_load_p6ulv2315_2 conn=wye bus1=p6ulv2315.2 kV=0.12 kW=1.2286541291607034 kvar=0.24573082583214068 Phases=1 Vminpu=0.0 Vmaxpu=1.2 model=1
New Load.motor_load_p6ulv2316_1 conn=wye bus1=p6ulv2316.1 kV=0.12 kW=1.2599923814024911 kvar=0.25199847628049826 Phases=1 Vminpu=0.0 Vmaxpu=1.2 model=1
New Load.motor_load_p6ulv2316_2 conn=wye bus1=p6ulv2316.2 kV=0.12 kW=1.0967718400398825 kvar=0.2193543680079765 Phases=1 Vminpu=0.0 Vmaxpu=1.2 model=1
New Load.motor_load_p6ulv2321_2 conn=wye bus1=p6ulv2321.2 kV=0.12 kW=1.1418520180331806 kvar=0.22837040360663613 Phases=1 Vminpu=0.0 Vmaxpu=1.2 model=1
New Load.motor_load_p6ulv2330_1 conn=wye bus1=p6ulv2330.1 kV=0.12 kW=1.2157731252104553 kvar=0.24315462504209107 Phases=1 Vminpu=0.0 Vmaxpu=1.2 model=1
New Load.motor_load_p6ulv2331_1 conn=wye bus1=p6ulv2331.1 kV=0.12 kW=1.1844422148141172 kvar=0.23688844296282344 Phases=1 Vminpu=0.0 Vmaxpu=1.2 model=1
New Load.motor_load_p6ulv2332_2 conn=wye bus1=p6ulv2332.2 kV=0.12 kW=1.1787155785287409 kvar=0.23574311570574819 Phases=1 Vminpu=0.0 Vmaxpu=1.2 model=1
New Load.motor_load_p6ulv2334_1 conn=wye bus1=p6ulv2334.1 kV=0.12 kW=1.1128759467186544 kvar=0.22257518934373088 Phases=1 Vminpu=0.0 Vmaxpu=1.2 model=1
New Load.motor_load_p6ulv2336_2 conn=wye bus1=p6ulv2336.2 kV=0.12 kW=1.0801659060783522 kvar=0.21603318121567044 Phases=1 Vminpu=0.0 Vmaxpu=1.2 model=1
New Load.motor_load_p6ulv2338_1 conn=wye bus1=p6ulv2338.1 kV=0.12 kW=1.1167030296971887 kvar=0.22334060593943775 Phases=1 Vminpu=0.0 Vmaxpu=1.2 model=1
New Load.motor_load_p6ulv2339_1 conn=wye bus1=p6ulv2339.1 kV=0.12 kW=1.0564947334964625 kvar=0.2112989466992925 Phases=1 Vminpu=0.0 Vmaxpu=1.2 model=1
New Load.motor_load_p6ulv2341_1 conn=wye bus1=p6ulv2341.1 kV=0.12 kW=1.2151068554523234 kvar=0.2430213710904647 Phases=1 Vminpu=0.0 Vmaxpu=1.2 model=1
New Load.motor_load_p6ulv2342_1 conn=wye bus1=p6ulv2342.1 kV=0.12 kW=1.0569073471450579 kvar=0.2113814694290116 Phases=1 Vminpu=0.0 Vmaxpu=1.2 model=1
New Load.motor_load_p6ulv2344_1 conn=wye bus1=p6ulv2344.1 kV=0.12 kW=1.2431653770395563 kvar=0.24863307540791127 Phases=1 Vminpu=0.0 Vmaxpu=1.2 model=1
New Load.motor_load_p6ulv2346_1 conn=wye bus1=p6ulv2346.1 kV=0.12 kW=1.080002539929936 kvar=0.21600050798598722 Phases=1 Vminpu=0.0 Vmaxpu=1.2 model=1
New Load.motor_load_p6ulv2353_1 conn=wye bus1=p6ulv2353.1 kV=0.12 kW=1.2611391575881057 kvar=0.2522278315176211 Phases=1 Vminpu=0.0 Vmaxpu=1.2 model=1
New Load.motor_load_p6ulv2354_2 conn=wye bus1=p6ulv2354.2 kV=0.12 kW=1.088659278794021 kvar=0.21773185575880422 Phases=1 Vminpu=0.0 Vmaxpu=1.2 model=1
New Load.motor_load_p6ulv2355_1 conn=wye bus1=p6ulv2355.1 kV=0.12 kW=1.195965647724379 kvar=0.23919312954487582 Phases=1 Vminpu=0.0 Vmaxpu=1.2 model=1
New Load.motor_load_p6ulv2356_2 conn=wye bus1=p6ulv2356.2 kV=0.12 kW=1.080440508574183 kvar=0.2160881017148366 Phases=1 Vminpu=0.0 Vmaxpu=1.2 model=1
New Load.motor_load_p6ulv2358_1 conn=wye bus1=p6ulv2358.1 kV=0.12 kW=1.1013980765026705 kvar=0.2202796153005341 Phases=1 Vminpu=0.0 Vmaxpu=1.2 model=1
New Load.motor_load_p6ulv2359_1 conn=wye bus1=p6ulv2359.1 kV=0.12 kW=1.121971593067325 kvar=0.22439431861346504 Phases=1 Vminpu=0.0 Vmaxpu=1.2 model=1
New Load.motor_load_p6ulv2362_2 conn=wye bus1=p6ulv2362.2 kV=0.12 kW=1.0910680945125202 kvar=0.21821361890250404 Phases=1 Vminpu=0.0 Vmaxpu=1.2 model=1
New Load.motor_load_p6ulv2363_1 conn=wye bus1=p6ulv2363.1 kV=0.12 kW=1.21478397435151 kvar=0.24295679487030203 Phases=1 Vminpu=0.0 Vmaxpu=1.2 model=1
New Load.motor_load_p6ulv2367_1 conn=wye bus1=p6ulv2367.1 kV=0.12 kW=1.2448202187266264 kvar=0.2489640437453253 Phases=1 Vminpu=0.0 Vmaxpu=1.2 model=1
New Load.motor_load_p6ulv2370_1 conn=wye bus1=p6ulv2370.1 kV=0.12 kW=1.118449690971972 kvar=0.22368993819439442 Phases=1 Vminpu=0.0 Vmaxpu=1.2 model=1
New Load.motor_load_p6ulv2371_1 conn=wye bus1=p6ulv2371.1 kV=0.12 kW=1.231819315848016 kvar=0.2463638631696032 Phases=1 Vminpu=0.0 Vmaxpu=1.2 model=1
New Load.motor_load_p6ulv2374_1 conn=wye bus1=p6ulv2374.1 kV=0.12 kW=1.0666347657738515 kvar=0.21332695315477032 Phases=1 Vminpu=0.0 Vmaxpu=1.2 model=1
New Load.motor_load_p6ulv2375_2 conn=wye bus1=p6ulv2375.2 kV=0.12 kW=1.2557712384676032 kvar=0.2511542476935206 Phases=1 Vminpu=0.0 Vmaxpu=1.2 model=1
New Load.motor_load_p6ulv2379_1 conn=wye bus1=p6ulv2379.1 kV=0.12 kW=1.0621064405318985 kvar=0.21242128810637972 Phases=1 Vminpu=0.0 Vmaxpu=1.2 model=1
New Load.motor_load_p6ulv2379_2 conn=wye bus1=p6ulv2379.2 kV=0.12 kW=1.2618445270736276 kvar=0.2523689054147255 Phases=1 Vminpu=0.0 Vmaxpu=1.2 model=1
New Load.motor_load_p6ulv2384_1 conn=wye bus1=p6ulv2384.1 kV=0.12 kW=1.190869620212724 kvar=0.2381739240425448 Phases=1 Vminpu=0.0 Vmaxpu=1.2 model=1
New Load.motor_load_p6ulv2385_1 conn=wye bus1=p6ulv2385.1 kV=0.12 kW=1.0993769891909104 kvar=0.2198753978381821 Phases=1 Vminpu=0.0 Vmaxpu=1.2 model=1
New Load.motor_load_p6ulv2385_2 conn=wye bus1=p6ulv2385.2 kV=0.12 kW=1.2254709765777614 kvar=0.2450941953155523 Phases=1 Vminpu=0.0 Vmaxpu=1.2 model=1
New Load.motor_load_p6ulv2386_2 conn=wye bus1=p6ulv2386.2 kV=0.12 kW=1.2472827693365098 kvar=0.24945655386730198 Phases=1 Vminpu=0.0 Vmaxpu=1.2 model=1
New Load.motor_load_p6ulv2397_2 conn=wye bus1=p6ulv2397.2 kV=0.12 kW=1.103257172196643 kvar=0.22065143443932864 Phases=1 Vminpu=0.0 Vmaxpu=1.2 model=1
New Load.motor_load_p6ulv2398_2 conn=wye bus1=p6ulv2398.2 kV=0.12 kW=1.130327022123549 kvar=0.22606540442470982 Phases=1 Vminpu=0.0 Vmaxpu=1.2 model=1
New Load.motor_load_p6ulv2401_1 conn=wye bus1=p6ulv2401.1 kV=0.12 kW=1.1513571406707226 kvar=0.23027142813414453 Phases=1 Vminpu=0.0 Vmaxpu=1.2 model=1
New Load.motor_load_p6ulv2405_1 conn=wye bus1=p6ulv2405.1 kV=0.12 kW=1.0963072418696682 kvar=0.21926144837393366 Phases=1 Vminpu=0.0 Vmaxpu=1.2 model=1
New Load.motor_load_p6ulv2405_2 conn=wye bus1=p6ulv2405.2 kV=0.12 kW=1.2456320393526497 kvar=0.24912640787052995 Phases=1 Vminpu=0.0 Vmaxpu=1.2 model=1
New Load.motor_load_p6ulv2407_1 conn=wye bus1=p6ulv2407.1 kV=0.12 kW=1.2489431147737602 kvar=0.24978862295475204 Phases=1 Vminpu=0.0 Vmaxpu=1.2 model=1
New Load.motor_load_p6ulv2409_2 conn=wye bus1=p6ulv2409.2 kV=0.12 kW=1.1038503202397791 kvar=0.22077006404795585 Phases=1 Vminpu=0.0 Vmaxpu=1.2 model=1
New Load.motor_load_p6ulv2410_1 conn=wye bus1=p6ulv2410.1 kV=0.12 kW=1.1542715249419446 kvar=0.23085430498838894 Phases=1 Vminpu=0.0 Vmaxpu=1.2 model=1
New Load.motor_load_p6ulv2411_2 conn=wye bus1=p6ulv2411.2 kV=0.12 kW=1.2447440455451453 kvar=0.24894880910902906 Phases=1 Vminpu=0.0 Vmaxpu=1.2 model=1
New Load.motor_load_p6ulv2412_2 conn=wye bus1=p6ulv2412.2 kV=0.12 kW=1.1732965800654398 kvar=0.23465931601308798 Phases=1 Vminpu=0.0 Vmaxpu=1.2 model=1
New Load.motor_load_p6ulv2414_1 conn=wye bus1=p6ulv2414.1 kV=0.12 kW=1.105858083746589 kvar=0.22117161674931782 Phases=1 Vminpu=0.0 Vmaxpu=1.2 model=1
New Load.motor_load_p6ulv2415_1 conn=wye bus1=p6ulv2415.1 kV=0.12 kW=1.0766018784764495 kvar=0.21532037569528992 Phases=1 Vminpu=0.0 Vmaxpu=1.2 model=1
New Load.motor_load_p6ulv2415_2 conn=wye bus1=p6ulv2415.2 kV=0.12 kW=1.2623519870934583 kvar=0.25247039741869165 Phases=1 Vminpu=0.0 Vmaxpu=1.2 model=1
New Load.motor_load_p6ulv2417_1 conn=wye bus1=p6ulv2417.1 kV=0.12 kW=1.1188752271252551 kvar=0.22377504542505103 Phases=1 Vminpu=0.0 Vmaxpu=1.2 model=1
New Load.motor_load_p6ulv2420_1 conn=wye bus1=p6ulv2420.1 kV=0.12 kW=1.1497499286358797 kvar=0.22994998572717595 Phases=1 Vminpu=0.0 Vmaxpu=1.2 model=1
New Load.motor_load_p6ulv2420_2 conn=wye bus1=p6ulv2420.2 kV=0.12 kW=1.2138165070035491 kvar=0.24276330140070984 Phases=1 Vminpu=0.0 Vmaxpu=1.2 model=1
New Load.motor_load_p6ulv2422_2 conn=wye bus1=p6ulv2422.2 kV=0.12 kW=1.1330781832724202 kvar=0.22661563665448403 Phases=1 Vminpu=0.0 Vmaxpu=1.2 model=1
New Load.motor_load_p6ulv2424_2 conn=wye bus1=p6ulv2424.2 kV=0.12 kW=1.226987271932663 kvar=0.24539745438653263 Phases=1 Vminpu=0.0 Vmaxpu=1.2 model=1
New Load.motor_load_p6ulv2430_1 conn=wye bus1=p6ulv2430.1 kV=0.12 kW=1.0824408026685677 kvar=0.21648816053371356 Phases=1 Vminpu=0.0 Vmaxpu=1.2 model=1
New Load.motor_load_p6ulv2430_2 conn=wye bus1=p6ulv2430.2 kV=0.12 kW=1.1281715596933717 kvar=0.22563431193867434 Phases=1 Vminpu=0.0 Vmaxpu=1.2 model=1
New Load.motor_load_p6ulv2433 conn=wye bus1=p6ulv2433.1.2.3 kV=0.48 kW=1.2058214335162112 kvar=0.24116428670324225 Phases=3 Vminpu=0.0 Vmaxpu=1.2 model=1
New Load.motor_load_p6ulv2443_2 conn=wye bus1=p6ulv2443.2 kV=0.12 kW=1.169501094867811 kvar=0.23390021897356222 Phases=1 Vminpu=0.0 Vmaxpu=1.2 model=1
New Load.motor_load_p6ulv2446_1 conn=wye bus1=p6ulv2446.1 kV=0.12 kW=1.1722859648812074 kvar=0.23445719297624149 Phases=1 Vminpu=0.0 Vmaxpu=1.2 model=1
New Load.motor_load_p6ulv2447_2 conn=wye bus1=p6ulv2447.2 kV=0.12 kW=1.0950626722358514 kvar=0.21901253444717028 Phases=1 Vminpu=0.0 Vmaxpu=1.2 model=1
New Load.motor_load_p6ulv2448_2 conn=wye bus1=p6ulv2447.2 kV=0.12 kW=1.2340572201041762 kvar=0.24681144402083524 Phases=1 Vminpu=0.0 Vmaxpu=1.2 model=1
New Load.motor_load_p6ulv2449_1 conn=wye bus1=p6ulv2449.1 kV=0.12 kW=1.1517186225764167 kvar=0.23034372451528334 Phases=1 Vminpu=0.0 Vmaxpu=1.2 model=1
New Load.motor_load_p6ulv2450_1 conn=wye bus1=p6ulv2450.1 kV=0.12 kW=1.0637819768265666 kvar=0.21275639536531332 Phases=1 Vminpu=0.0 Vmaxpu=1.2 model=1
New Load.motor_load_p6ulv2452_2 conn=wye bus1=p6ulv2452.2 kV=0.12 kW=1.1751720205724017 kvar=0.23503440411448034 Phases=1 Vminpu=0.0 Vmaxpu=1.2 model=1
New Load.motor_load_p6ulv2455_2 conn=wye bus1=p6ulv2455.2 kV=0.12 kW=1.102791510628101 kvar=0.22055830212562022 Phases=1 Vminpu=0.0 Vmaxpu=1.2 model=1
New Load.motor_load_p6ulv3613_2 conn=wye bus1=p6ulv3613.2 kV=0.12 kW=1.1872726554357085 kvar=0.2374545310871417 Phases=1 Vminpu=0.0 Vmaxpu=1.2 model=1
New Load.motor_load_p6ulv3614_1 conn=wye bus1=p6ulv3614.1 kV=0.12 kW=1.0873431922595762 kvar=0.21746863845191525 Phases=1 Vminpu=0.0 Vmaxpu=1.2 model=1
New Load.motor_load_p6ulv3614_2 conn=wye bus1=p6ulv3614.2 kV=0.12 kW=1.223335056820667 kvar=0.24466701136413338 Phases=1 Vminpu=0.0 Vmaxpu=1.2 model=1
New Load.motor_load_p6ulv3624_2 conn=wye bus1=p6ulv3624.2 kV=0.12 kW=1.1995522918582338 kvar=0.23991045837164676 Phases=1 Vminpu=0.0 Vmaxpu=1.2 model=1
New Load.motor_load_p6ulv3627_2 conn=wye bus1=p6ulv3627.2 kV=0.12 kW=1.1720758320134714 kvar=0.2344151664026943 Phases=1 Vminpu=0.0 Vmaxpu=1.2 model=1
New Load.motor_load_p6ulv4276_2 conn=wye bus1=p6ulv4276.2 kV=0.12 kW=1.1396578808578184 kvar=0.22793157617156368 Phases=1 Vminpu=0.0 Vmaxpu=1.2 model=1
New Load.motor_load_p6ulv4277_1 conn=wye bus1=p6ulv4277.1 kV=0.12 kW=1.1945203914012839 kvar=0.23890407828025678 Phases=1 Vminpu=0.0 Vmaxpu=1.2 model=1
New Load.motor_load_p6ulv4278_1 conn=wye bus1=p6ulv4278.1 kV=0.12 kW=1.1328094778488043 kvar=0.22656189556976086 Phases=1 Vminpu=0.0 Vmaxpu=1.2 model=1
New Load.motor_load_p6ulv4281 conn=wye bus1=p6ulv4281.1.2.3 kV=0.48 kW=1.216035707044881 kvar=0.24320714140897623 Phases=3 Vminpu=0.0 Vmaxpu=1.2 model=1
New Load.motor_load_p6ulv4287_1 conn=wye bus1=p6ulv4287.1 kV=0.12 kW=1.2621678140127404 kvar=0.2524335628025481 Phases=1 Vminpu=0.0 Vmaxpu=1.2 model=1
New Load.motor_load_p6ulv4288_2 conn=wye bus1=p6ulv4288.2 kV=0.12 kW=1.1209413962121137 kvar=0.22418827924242277 Phases=1 Vminpu=0.0 Vmaxpu=1.2 model=1
New Load.motor_load_p6ulv4289_2 conn=wye bus1=p6ulv4289.2 kV=0.12 kW=1.166729474381274 kvar=0.2333458948762548 Phases=1 Vminpu=0.0 Vmaxpu=1.2 model=1
New Load.motor_load_p6ulv4292_1 conn=wye bus1=p6ulv4292.1 kV=0.12 kW=1.1287991208219625 kvar=0.22575982416439253 Phases=1 Vminpu=0.0 Vmaxpu=1.2 model=1
New Load.motor_load_p6ulv4292_2 conn=wye bus1=p6ulv4292.2 kV=0.12 kW=1.2587554883103773 kvar=0.2517510976620755 Phases=1 Vminpu=0.0 Vmaxpu=1.2 model=1
New Load.motor_load_p6ulv4294_1 conn=wye bus1=p6ulv4294.1 kV=0.12 kW=1.1358958431797768 kvar=0.22717916863595536 Phases=1 Vminpu=0.0 Vmaxpu=1.2 model=1
New Load.motor_load_p6ulv4296_2 conn=wye bus1=p6ulv4296.2 kV=0.12 kW=1.055021408670334 kvar=0.21100428173406682 Phases=1 Vminpu=0.0 Vmaxpu=1.2 model=1
New Load.motor_load_p6ulv4297_1 conn=wye bus1=p6ulv4297.1 kV=0.12 kW=1.1247052418270422 kvar=0.22494104836540846 Phases=1 Vminpu=0.0 Vmaxpu=1.2 model=1
New Load.motor_load_p6ulv4298_1 conn=wye bus1=p6ulv4298.1 kV=0.12 kW=1.2376193736047705 kvar=0.2475238747209541 Phases=1 Vminpu=0.0 Vmaxpu=1.2 model=1
New Load.motor_load_p6ulv4299_1 conn=wye bus1=p6ulv4299.1 kV=0.12 kW=1.1195215720797207 kvar=0.22390431441594416 Phases=1 Vminpu=0.0 Vmaxpu=1.2 model=1
New Load.motor_load_p6ulv4300_2 conn=wye bus1=p6ulv4300.2 kV=0.12 kW=1.1110817826490766 kvar=0.22221635652981533 Phases=1 Vminpu=0.0 Vmaxpu=1.2 model=1
New Load.motor_load_p6ulv4308_1 conn=wye bus1=p6ulv4308.1 kV=0.12 kW=1.1130568636117955 kvar=0.2226113727223591 Phases=1 Vminpu=0.0 Vmaxpu=1.2 model=1
New Load.motor_load_p6ulv4309_2 conn=wye bus1=p6ulv4309.2 kV=0.12 kW=1.237482628828571 kvar=0.2474965257657142 Phases=1 Vminpu=0.0 Vmaxpu=1.2 model=1
New Load.motor_load_p6ulv8198_2 conn=wye bus1=p6ulv8198.2 kV=0.12 kW=1.1809268972477018 kvar=0.23618537944954038 Phases=1 Vminpu=0.0 Vmaxpu=1.2 model=1
New Load.motor_load_p6ulv8200_2 conn=wye bus1=p6ulv8200.2 kV=0.12 kW=1.1161134495291338 kvar=0.22322268990582678 Phases=1 Vminpu=0.0 Vmaxpu=1.2 model=1
New Load.motor_load_p6ulv8201 conn=wye bus1=p6ulv8201.1.2.3 kV=0.48 kW=1.1083367139219016 kvar=0.22166734278438033 Phases=3 Vminpu=0.0 Vmaxpu=1.2 model=1
New Load.motor_load_p6ulv8204_2 conn=wye bus1=p6ulv8204.2 kV=0.12 kW=1.0642993938416225 kvar=0.21285987876832452 Phases=1 Vminpu=0.0 Vmaxpu=1.2 model=1
New Load.motor_load_p6ulv8208_2 conn=wye bus1=p6ulv8208.2 kV=0.12 kW=1.096451402716807 kvar=0.21929028054336142 Phases=1 Vminpu=0.0 Vmaxpu=1.2 model=1
New Load.motor_load_p6ulv8210_2 conn=wye bus1=p6ulv8210.2 kV=0.12 kW=1.18845964842061 kvar=0.237691929684122 Phases=1 Vminpu=0.0 Vmaxpu=1.2 model=1
New Load.motor_load_p6ulv8211_2 conn=wye bus1=p6ulv8211.2 kV=0.12 kW=1.2280010847680218 kvar=0.24560021695360437 Phases=1 Vminpu=0.0 Vmaxpu=1.2 model=1
New Load.motor_load_p6ulv8212_2 conn=wye bus1=p6ulv8212.2 kV=0.12 kW=1.0951816827423562 kvar=0.21903633654847124 Phases=1 Vminpu=0.0 Vmaxpu=1.2 model=1
New Load.motor_load_p6ulv8215_2 conn=wye bus1=p6ulv8215.2 kV=0.12 kW=1.059214368026489 kvar=0.2118428736052978 Phases=1 Vminpu=0.0 Vmaxpu=1.2 model=1
New Load.motor_load_p6ulv8216_1 conn=wye bus1=p6ulv8216.1 kV=0.12 kW=1.0543529220344232 kvar=0.21087058440688466 Phases=1 Vminpu=0.0 Vmaxpu=1.2 model=1
New Load.motor_load_p6ulv8220_2 conn=wye bus1=p6ulv8220.2 kV=0.12 kW=1.2396316475007167 kvar=0.24792632950014337 Phases=1 Vminpu=0.0 Vmaxpu=1.2 model=1
New Load.motor_load_p6ulv8221_1 conn=wye bus1=p6ulv8221.1 kV=0.12 kW=1.1423618560374733 kvar=0.22847237120749467 Phases=1 Vminpu=0.0 Vmaxpu=1.2 model=1
New Load.motor_load_p6ulv11274_1 conn=wye bus1=p6ulv11274.1 kV=0.12 kW=1.1643487012366065 kvar=0.23286974024732132 Phases=1 Vminpu=0.0 Vmaxpu=1.2 model=1
New Load.motor_load_p6ulv11275_1 conn=wye bus1=p6ulv11275.1 kV=0.12 kW=1.174671762396206 kvar=0.23493435247924122 Phases=1 Vminpu=0.0 Vmaxpu=1.2 model=1
New Load.motor_load_p6ulv11330_1 conn=wye bus1=p6ulv11330.1 kV=0.12 kW=1.214929223993231 kvar=0.2429858447986462 Phases=1 Vminpu=0.0 Vmaxpu=1.2 model=1
New Load.motor_load_p6ulv11330_2 conn=wye bus1=p6ulv11330.2 kV=0.12 kW=1.2202630029902242 kvar=0.24405260059804484 Phases=1 Vminpu=0.0 Vmaxpu=1.2 model=1
New Load.motor_load_p6ulv11335_1 conn=wye bus1=p6ulv11335.1 kV=0.12 kW=1.1350278490931414 kvar=0.2270055698186283 Phases=1 Vminpu=0.0 Vmaxpu=1.2 model=1
New Load.motor_load_p6ulv11335_2 conn=wye bus1=p6ulv11335.2 kV=0.12 kW=1.2186380135481871 kvar=0.24372760270963745 Phases=1 Vminpu=0.0 Vmaxpu=1.2 model=1
New Load.motor_load_p6ulv11338_1 conn=wye bus1=p6ulv11338.1 kV=0.12 kW=1.2503528622843083 kvar=0.25007057245686165 Phases=1 Vminpu=0.0 Vmaxpu=1.2 model=1
New Load.motor_load_p6ulv13840_2 conn=wye bus1=p6ulv13840.2 kV=0.12 kW=1.2204588904336822 kvar=0.24409177808673643 Phases=1 Vminpu=0.0 Vmaxpu=1.2 model=1
New Load.motor_load_p6ulv13841_2 conn=wye bus1=p6ulv13841.2 kV=0.12 kW=1.1406572444552625 kvar=0.22813144889105252 Phases=1 Vminpu=0.0 Vmaxpu=1.2 model=1
New Load.motor_load_p6ulv13842_2 conn=wye bus1=p6ulv13842.2 kV=0.12 kW=1.102256664564997 kvar=0.2204513329129994 Phases=1 Vminpu=0.0 Vmaxpu=1.2 model=1
New Load.motor_load_p6ulv13843_1 conn=wye bus1=p6ulv13843.1 kV=0.12 kW=1.0643645614017168 kvar=0.21287291228034336 Phases=1 Vminpu=0.0 Vmaxpu=1.2 model=1
New Load.motor_load_p6ulv13844_2 conn=wye bus1=p6ulv13844.2 kV=0.12 kW=1.18902844319744 kvar=0.23780568863948803 Phases=1 Vminpu=0.0 Vmaxpu=1.2 model=1
New Load.motor_load_p6ulv13943_1 conn=wye bus1=p6ulv13943.1 kV=0.12 kW=1.2354390223577503 kvar=0.24708780447155007 Phases=1 Vminpu=0.0 Vmaxpu=1.2 model=1
New Load.motor_load_p6ulv13946_2 conn=wye bus1=p6ulv13946.2 kV=0.12 kW=1.2576497232250465 kvar=0.25152994464500933 Phases=1 Vminpu=0.0 Vmaxpu=1.2 model=1
New Load.motor_load_p6ulv13947_2 conn=wye bus1=p6ulv13947.2 kV=0.12 kW=1.1874017705330142 kvar=0.23748035410660284 Phases=1 Vminpu=0.0 Vmaxpu=1.2 model=1
New Load.motor_load_p6ulv13950_2 conn=wye bus1=p6ulv13950.2 kV=0.12 kW=1.1211049325707094 kvar=0.2242209865141419 Phases=1 Vminpu=0.0 Vmaxpu=1.2 model=1
New Load.motor_load_p6ulv13952_1 conn=wye bus1=p6ulv13952.1 kV=0.12 kW=1.2576301426519074 kvar=0.2515260285303815 Phases=1 Vminpu=0.0 Vmaxpu=1.2 model=1
New Load.motor_load_p6ulv13957_2 conn=wye bus1=p6ulv13957.2 kV=0.12 kW=1.054295975654761 kvar=0.2108591951309522 Phases=1 Vminpu=0.0 Vmaxpu=1.2 model=1
New Load.motor_load_p6ulv13960_1 conn=wye bus1=p6ulv13960.1 kV=0.12 kW=1.0647418570441218 kvar=0.2129483714088244 Phases=1 Vminpu=0.0 Vmaxpu=1.2 model=1
New Load.motor_load_p6ulv13960_2 conn=wye bus1=p6ulv13960.2 kV=0.12 kW=1.0572280113553767 kvar=0.21144560227107534 Phases=1 Vminpu=0.0 Vmaxpu=1.2 model=1
New Load.motor_load_p6ulv13961_1 conn=wye bus1=p6ulv13961.1 kV=0.12 kW=1.120729699437407 kvar=0.2241459398874814 Phases=1 Vminpu=0.0 Vmaxpu=1.2 model=1
New Load.motor_load_p6ulv13962_1 conn=wye bus1=p6ulv13962.1 kV=0.12 kW=1.2199164160760245 kvar=0.2439832832152049 Phases=1 Vminpu=0.0 Vmaxpu=1.2 model=1
New Load.motor_load_p6ulv13962_2 conn=wye bus1=p6ulv13962.2 kV=0.12 kW=1.185076095655868 kvar=0.2370152191311736 Phases=1 Vminpu=0.0 Vmaxpu=1.2 model=1
New Load.motor_load_p6ulv13964_2 conn=wye bus1=p6ulv13964.2 kV=0.12 kW=1.196613858348966 kvar=0.2393227716697932 Phases=1 Vminpu=0.0 Vmaxpu=1.2 model=1
New Load.motor_load_p6ulv13968_1 conn=wye bus1=p6ulv13968.1 kV=0.12 kW=1.2147776348245938 kvar=0.24295552696491876 Phases=1 Vminpu=0.0 Vmaxpu=1.2 model=1
New Load.motor_load_p6ulv13968_2 conn=wye bus1=p6ulv13968.2 kV=0.12 kW=1.053906730814591 kvar=0.21078134616291822 Phases=1 Vminpu=0.0 Vmaxpu=1.2 model=1
New Load.motor_load_p6ulv13970_1 conn=wye bus1=p6ulv13970.1 kV=0.12 kW=1.1949023076626741 kvar=0.23898046153253483 Phases=1 Vminpu=0.0 Vmaxpu=1.2 model=1
New Load.motor_load_p6ulv13975_2 conn=wye bus1=p6ulv13975.2 kV=0.12 kW=1.1690289611660942 kvar=0.23380579223321885 Phases=1 Vminpu=0.0 Vmaxpu=1.2 model=1
New Load.motor_load_p6ulv13976_1 conn=wye bus1=p6ulv13976.1 kV=0.12 kW=1.131881333664563 kvar=0.2263762667329126 Phases=1 Vminpu=0.0 Vmaxpu=1.2 model=1
New Load.motor_load_p6ulv13980_2 conn=wye bus1=p6ulv13980.2 kV=0.12 kW=1.1180060954907443 kvar=0.22360121909814887 Phases=1 Vminpu=0.0 Vmaxpu=1.2 model=1
New Load.motor_load_p6ulv13981_2 conn=wye bus1=p6ulv13981.2 kV=0.12 kW=1.142271323145941 kvar=0.2284542646291882 Phases=1 Vminpu=0.0 Vmaxpu=1.2 model=1
New Load.motor_load_p6ulv13983_1 conn=wye bus1=p6ulv13983.1 kV=0.12 kW=1.2008961041418655 kvar=0.24017922082837312 Phases=1 Vminpu=0.0 Vmaxpu=1.2 model=1
New Load.motor_load_p6ulv13984_2 conn=wye bus1=p6ulv13984.2 kV=0.12 kW=1.158273773898163 kvar=0.2316547547796326 Phases=1 Vminpu=0.0 Vmaxpu=1.2 model=1
New Load.motor_load_p6ulv13985_2 conn=wye bus1=p6ulv13985.2 kV=0.12 kW=1.065269771056632 kvar=0.2130539542113264 Phases=1 Vminpu=0.0 Vmaxpu=1.2 model=1
New Load.motor_load_p6ulv13987_1 conn=wye bus1=p6ulv13987.1 kV=0.12 kW=1.2404856560631692 kvar=0.24809713121263385 Phases=1 Vminpu=0.0 Vmaxpu=1.2 model=1
New Load.motor_load_p6ulv13988_1 conn=wye bus1=p6ulv13988.1 kV=0.12 kW=1.1464027660915197 kvar=0.22928055321830396 Phases=1 Vminpu=0.0 Vmaxpu=1.2 model=1
New Load.motor_load_p6ulv14049_2 conn=wye bus1=p6ulv14049.2 kV=0.12 kW=1.2432227422225537 kvar=0.24864454844451075 Phases=1 Vminpu=0.0 Vmaxpu=1.2 model=1
New Load.motor_load_p6ulv14054_2 conn=wye bus1=p6ulv14054.2 kV=0.12 kW=1.2544858391149027 kvar=0.25089716782298055 Phases=1 Vminpu=0.0 Vmaxpu=1.2 model=1
New Load.motor_load_p6ulv14055_1 conn=wye bus1=p6ulv14055.1 kV=0.12 kW=1.1306454038104452 kvar=0.22612908076208904 Phases=1 Vminpu=0.0 Vmaxpu=1.2 model=1
New Load.motor_load_p6ulv14056_1 conn=wye bus1=p6ulv14056.1 kV=0.12 kW=1.112424066637333 kvar=0.2224848133274666 Phases=1 Vminpu=0.0 Vmaxpu=1.2 model=1
New Load.motor_load_p6ulv14056_2 conn=wye bus1=p6ulv14056.2 kV=0.12 kW=1.091131286478844 kvar=0.21822625729576883 Phases=1 Vminpu=0.0 Vmaxpu=1.2 model=1
New Load.motor_load_p6ulv14057_1 conn=wye bus1=p6ulv14057.1 kV=0.12 kW=1.0686887532577138 kvar=0.21373775065154277 Phases=1 Vminpu=0.0 Vmaxpu=1.2 model=1
New Load.motor_load_p6ulv14058_1 conn=wye bus1=p6ulv14058.1 kV=0.12 kW=1.064038861267828 kvar=0.21280777225356562 Phases=1 Vminpu=0.0 Vmaxpu=1.2 model=1
New Load.motor_load_p6ulv14058_2 conn=wye bus1=p6ulv14058.2 kV=0.12 kW=1.091510037127903 kvar=0.2183020074255806 Phases=1 Vminpu=0.0 Vmaxpu=1.2 model=1
New Load.motor_load_p6ulv14059_1 conn=wye bus1=p6ulv14059.1 kV=0.12 kW=1.2045361214129868 kvar=0.24090722428259737 Phases=1 Vminpu=0.0 Vmaxpu=1.2 model=1
New Load.motor_load_p6ulv14060_1 conn=wye bus1=p6ulv14060.1 kV=0.12 kW=1.19150750314825 kvar=0.23830150062965003 Phases=1 Vminpu=0.0 Vmaxpu=1.2 model=1
New Load.motor_load_p6ulv14060_2 conn=wye bus1=p6ulv14060.2 kV=0.12 kW=1.063821206190227 kvar=0.2127642412380454 Phases=1 Vminpu=0.0 Vmaxpu=1.2 model=1
New Load.motor_load_p6ulv14062_2 conn=wye bus1=p6ulv14062.2 kV=0.12 kW=1.1060076327033468 kvar=0.22120152654066938 Phases=1 Vminpu=0.0 Vmaxpu=1.2 model=1
New Load.motor_load_p6ulv14064_2 conn=wye bus1=p6ulv14064.2 kV=0.12 kW=1.0562776851150848 kvar=0.21125553702301697 Phases=1 Vminpu=0.0 Vmaxpu=1.2 model=1
New Load.motor_load_p6ulv14065_2 conn=wye bus1=p6ulv14065.2 kV=0.12 kW=1.1594878786779341 kvar=0.23189757573558684 Phases=1 Vminpu=0.0 Vmaxpu=1.2 model=1
New Load.motor_load_p6ulv14067_2 conn=wye bus1=p6ulv14067.2 kV=0.12 kW=1.230849908827567 kvar=0.2461699817655134 Phases=1 Vminpu=0.0 Vmaxpu=1.2 model=1
New Load.motor_load_p6ulv14071_1 conn=wye bus1=p6ulv14070.1 kV=0.12 kW=1.0750861528467734 kvar=0.2150172305693547 Phases=1 Vminpu=0.0 Vmaxpu=1.2 model=1
New Load.motor_load_p6ulv14075_2 conn=wye bus1=p6ulv14075.2 kV=0.12 kW=1.1030023885645677 kvar=0.22060047771291355 Phases=1 Vminpu=0.0 Vmaxpu=1.2 model=1
New Load.motor_load_p6ulv14083_1 conn=wye bus1=p6ulv14083.1 kV=0.12 kW=1.0665182436618386 kvar=0.21330364873236773 Phases=1 Vminpu=0.0 Vmaxpu=1.2 model=1
New Load.motor_load_p6ulv14087_1 conn=wye bus1=p6ulv14087.1 kV=0.12 kW=1.2565217972452258 kvar=0.25130435944904517 Phases=1 Vminpu=0.0 Vmaxpu=1.2 model=1
New Load.motor_load_p6ulv14088_1 conn=wye bus1=p6ulv14088.1 kV=0.12 kW=1.1651982396311618 kvar=0.23303964792623236 Phases=1 Vminpu=0.0 Vmaxpu=1.2 model=1
New Load.motor_load_p6ulv14092_2 conn=wye bus1=p6ulv14092.2 kV=0.12 kW=1.0616241484571256 kvar=0.21232482969142513 Phases=1 Vminpu=0.0 Vmaxpu=1.2 model=1
New Load.motor_load_p6ulv14094_1 conn=wye bus1=p6ulv14094.1 kV=0.12 kW=1.1579373229085048 kvar=0.23158746458170099 Phases=1 Vminpu=0.0 Vmaxpu=1.2 model=1
New Load.motor_load_p6ulv14095_2 conn=wye bus1=p6ulv14095.2 kV=0.12 kW=1.1069951950229262 kvar=0.22139903900458524 Phases=1 Vminpu=0.0 Vmaxpu=1.2 model=1
New Load.motor_load_p6ulv14101_1 conn=wye bus1=p6ulv14101.1 kV=0.12 kW=1.1020619758640042 kvar=0.22041239517280087 Phases=1 Vminpu=0.0 Vmaxpu=1.2 model=1
New Load.motor_load_p6ulv14103_1 conn=wye bus1=p6ulv14103.1 kV=0.12 kW=1.0994362519156284 kvar=0.2198872503831257 Phases=1 Vminpu=0.0 Vmaxpu=1.2 model=1
New Load.motor_load_p6ulv14103_2 conn=wye bus1=p6ulv14103.2 kV=0.12 kW=1.073249736010453 kvar=0.2146499472020906 Phases=1 Vminpu=0.0 Vmaxpu=1.2 model=1
New Load.motor_load_p6ulv14105_1 conn=wye bus1=p6ulv14105.1 kV=0.12 kW=1.2413038138113506 kvar=0.24826076276227013 Phases=1 Vminpu=0.0 Vmaxpu=1.2 model=1
New Load.motor_load_p6ulv14107_1 conn=wye bus1=p6ulv14107.1 kV=0.12 kW=1.1243964164141316 kvar=0.22487928328282633 Phases=1 Vminpu=0.0 Vmaxpu=1.2 model=1
New Load.motor_load_p6ulv14107_2 conn=wye bus1=p6ulv14107.2 kV=0.12 kW=1.114795974034246 kvar=0.2229591948068492 Phases=1 Vminpu=0.0 Vmaxpu=1.2 model=1
New Load.motor_load_p6ulv14108_2 conn=wye bus1=p6ulv14108.2 kV=0.12 kW=1.2069863501372884 kvar=0.2413972700274577 Phases=1 Vminpu=0.0 Vmaxpu=1.2 model=1
New Load.motor_load_p6ulv14109_1 conn=wye bus1=p6ulv14109.1 kV=0.12 kW=1.1600616347309127 kvar=0.23201232694618257 Phases=1 Vminpu=0.0 Vmaxpu=1.2 model=1
New Load.motor_load_p6ulv14111_1 conn=wye bus1=p6ulv14111.1 kV=0.12 kW=1.061348152856924 kvar=0.21226963057138482 Phases=1 Vminpu=0.0 Vmaxpu=1.2 model=1
New Load.motor_load_p6ulv14112_1 conn=wye bus1=p6ulv14112.1 kV=0.12 kW=1.0691721836172934 kvar=0.2138344367234587 Phases=1 Vminpu=0.0 Vmaxpu=1.2 model=1
New Load.motor_load_p6ulv14113_1 conn=wye bus1=p6ulv14113.1 kV=0.12 kW=1.1386603908749044 kvar=0.2277320781749809 Phases=1 Vminpu=0.0 Vmaxpu=1.2 model=1
New Load.motor_load_p6ulv14114_2 conn=wye bus1=p6ulv14114.2 kV=0.12 kW=1.2074751221269606 kvar=0.24149502442539214 Phases=1 Vminpu=0.0 Vmaxpu=1.2 model=1
New Load.motor_load_p6ulv14115_1 conn=wye bus1=p6ulv14115.1 kV=0.12 kW=1.1458179027213815 kvar=0.22916358054427632 Phases=1 Vminpu=0.0 Vmaxpu=1.2 model=1
New Load.motor_load_p6ulv14116_1 conn=wye bus1=p6ulv14116.1 kV=0.12 kW=1.0669034410281588 kvar=0.21338068820563177 Phases=1 Vminpu=0.0 Vmaxpu=1.2 model=1
New Load.motor_load_p6ulv14116_2 conn=wye bus1=p6ulv14116.2 kV=0.12 kW=1.1762379835953116 kvar=0.23524759671906234 Phases=1 Vminpu=0.0 Vmaxpu=1.2 model=1
New Load.motor_load_p6ulv14120_1 conn=wye bus1=p6ulv14120.1 kV=0.12 kW=1.2323385292125106 kvar=0.24646770584250213 Phases=1 Vminpu=0.0 Vmaxpu=1.2 model=1
New Load.motor_load_p6ulv14125_1 conn=wye bus1=p6ulv14125.1 kV=0.12 kW=1.1947770483545073 kvar=0.23895540967090145 Phases=1 Vminpu=0.0 Vmaxpu=1.2 model=1
New Load.motor_load_p6ulv14125_2 conn=wye bus1=p6ulv14125.2 kV=0.12 kW=1.230584043452259 kvar=0.24611680869045183 Phases=1 Vminpu=0.0 Vmaxpu=1.2 model=1
New Load.motor_load_p6ulv14127_2 conn=wye bus1=p6ulv14127.2 kV=0.12 kW=1.11789903930449 kvar=0.22357980786089804 Phases=1 Vminpu=0.0 Vmaxpu=1.2 model=1
New Load.motor_load_p6ulv14128_1 conn=wye bus1=p6ulv14128.1 kV=0.12 kW=1.0652375368772835 kvar=0.21304750737545672 Phases=1 Vminpu=0.0 Vmaxpu=1.2 model=1
New Load.motor_load_p6ulv14128_2 conn=wye bus1=p6ulv14128.2 kV=0.12 kW=1.120153292563608 kvar=0.2240306585127216 Phases=1 Vminpu=0.0 Vmaxpu=1.2 model=1
New Load.motor_load_p6ulv14129_1 conn=wye bus1=p6ulv14129.1 kV=0.12 kW=1.1985505706123967 kvar=0.23971011412247933 Phases=1 Vminpu=0.0 Vmaxpu=1.2 model=1
New Load.motor_load_p6ulv14132_2 conn=wye bus1=p6ulv14132.2 kV=0.12 kW=1.1384412799043755 kvar=0.2276882559808751 Phases=1 Vminpu=0.0 Vmaxpu=1.2 model=1
New Load.motor_load_p6ulv14133_1 conn=wye bus1=p6ulv14133.1 kV=0.12 kW=1.1462718492894095 kvar=0.22925436985788192 Phases=1 Vminpu=0.0 Vmaxpu=1.2 model=1
New Load.motor_load_p6ulv14133_2 conn=wye bus1=p6ulv14133.2 kV=0.12 kW=1.1169582594042993 kvar=0.22339165188085985 Phases=1 Vminpu=0.0 Vmaxpu=1.2 model=1
New Load.motor_load_p6ulv14135_1 conn=wye bus1=p6ulv14135.1 kV=0.12 kW=1.1161572862984142 kvar=0.22323145725968285 Phases=1 Vminpu=0.0 Vmaxpu=1.2 model=1
New Load.motor_load_p6ulv14136_1 conn=wye bus1=p6ulv14136.1 kV=0.12 kW=1.0768665215683026 kvar=0.21537330431366053 Phases=1 Vminpu=0.0 Vmaxpu=1.2 model=1
New Load.motor_load_p6ulv14138_1 conn=wye bus1=p6ulv14138.1 kV=0.12 kW=1.1257746494665741 kvar=0.22515492989331484 Phases=1 Vminpu=0.0 Vmaxpu=1.2 model=1
New Load.motor_load_p6ulv14138_2 conn=wye bus1=p6ulv14138.2 kV=0.12 kW=1.1762312197656655 kvar=0.2352462439531331 Phases=1 Vminpu=0.0 Vmaxpu=1.2 model=1
New Load.motor_load_p6ulv14140_2 conn=wye bus1=p6ulv14140.2 kV=0.12 kW=1.1838710743601988 kvar=0.23677421487203976 Phases=1 Vminpu=0.0 Vmaxpu=1.2 model=1
New Load.motor_load_p6ulv14141_2 conn=wye bus1=p6ulv14141.2 kV=0.12 kW=1.10132705610365 kvar=0.22026541122072998 Phases=1 Vminpu=0.0 Vmaxpu=1.2 model=1
New Load.motor_load_p6ulv14142 conn=wye bus1=p6ulv14142.1.2.3 kV=0.48 kW=1.2138827291406238 kvar=0.24277654582812477 Phases=3 Vminpu=0.0 Vmaxpu=1.2 model=1
New Load.motor_load_p6ulv14143_2 conn=wye bus1=p6ulv14143.2 kV=0.12 kW=1.238804368088126 kvar=0.24776087361762522 Phases=1 Vminpu=0.0 Vmaxpu=1.2 model=1
New Load.motor_load_p6ulv14145_2 conn=wye bus1=p6ulv14145.2 kV=0.12 kW=1.065391068387901 kvar=0.21307821367758023 Phases=1 Vminpu=0.0 Vmaxpu=1.2 model=1