New Generator.pv_load_p6ulv2310_1 conn=wye bus1=p6ulv2310.1 kV=0.12 model=7 kW=0.13976863132707776 kvar=-0.0 Phases=1
New Generator.pv_load_p6ulv2313_2 conn=wye bus1=p6ulv2313.2 kV=0.12 model=7 kW=0.371212875091003 kvar=-0.0 Phases=1
New Generator.pv_load_p6ulv2331_1 conn=wye bus1=p6ulv2331.1 kV=0.12 model=7 kW=0.28554905908875533 kvar=-0.0 Phases=1
New Generator.pv_load_p6ulv2331_2 conn=wye bus1=p6ulv2331.2 kV=0.12 model=7 kW=0.28554905908875533 kvar=-0.0 Phases=1
New Generator.pv_load_p6ulv2335_1 conn=wye bus1=p6ulv2335.1 kV=0.12 model=7 kW=0.2043923621073979 kvar=-0.0 Phases=1
New Generator.pv_load_p6ulv2336_1 conn=wye bus1=p6ulv2336.1 kV=0.12 model=7 kW=0.2449714620350591 kvar=-0.0 Phases=1
New Generator.pv_load_p6ulv2343_1 conn=wye bus1=p6ulv2343.1 kV=0.12 model=7 kW=0.1457802774742811 kvar=-0.0 Phases=1
New Generator.pv_load_p6ulv2348_2 conn=wye bus1=p6ulv2348.2 kV=0.12 model=7 kW=0.33213815200225844 kvar=-0.0 Phases=1
New Generator.pv_load_p6ulv2349_1 conn=wye bus1=p6ulv2349.1 kV=0.12 model=7 kW=0.22092397572186676 kvar=-0.0 Phases=1
New Generator.pv_load_p6ulv2352_1 conn=wye bus1=p6ulv2352.1 kV=0.12 model=7 kW=0.25248583185981766 kvar=-0.0 Phases=1
New Generator.pv_load_p6ulv2353_2 conn=wye bus1=p6ulv2353.2 kV=0.12 model=7 kW=0.16231189108874994 kvar=-0.0 Phases=1
New Generator.pv_load_p6ulv2354_1 conn=wye bus1=p6ulv2354.1 kV=0.12 model=7 kW=0.3171094123527413 kvar=-0.0 Phases=1
New Generator.pv_load_p6ulv2355_2 conn=wye bus1=p6ulv2355.2 kV=0.12 model=7 kW=0.24948008392991425 kvar=-0.0 Phases=1
New Generator.pv_load_p6ulv2356_1 conn=wye bus1=p6ulv2356.1 kV=0.12 model=7 kW=0.2960691768434174 kvar=-0.0 Phases=1
New Generator.pv_load_p6ulv2357_2 conn=wye bus1=p6ulv2357.2 kV=0.12 model=7 kW=0.09468196151633687 kvar=-0.0 Phases=1
New Generator.pv_load_p6ulv2358_2 conn=wye bus1=p6ulv2358.2 kV=0.12 model=7 kW=0.5816182359321727 kvar=-0.0 Phases=1
New Generator.pv_load_p6ulv2360_1 conn=wye bus1=p6ulv2360.1 kV=0.12 model=7 kW=0.40277473122895385 kvar=-0.0 Phases=1
New Generator.pv_load_p6ulv2366_1 conn=wye bus1=p6ulv2366.1 kV=0.12 model=7 kW=0.26450882357943134 kvar=-0.0 Phases=1
New Generator.pv_load_p6ulv2369_1 conn=wye bus1=p6ulv2369.1 kV=0.12 model=7 kW=0.27803468926399677 kvar=-0.0 Phases=1
New Generator.pv_load_p6ulv2371_1 conn=wye bus1=p6ulv2371.1 kV=0.12 model=7 kW=0.24196571410515566 kvar=-0.0 Phases=1
New Generator.pv_load_p6ulv2375_2 conn=wye bus1=p6ulv2375.2 kV=0.12 model=7 kW=0.13676288339717432 kvar=-0.0 Phases=1
New Generator.pv_load_p6ulv2377_2 conn=wye bus1=p6ulv2377.2 kV=0.12 model=7 kW=0.17734063073826706 kvar=-0.0 Phases=1
New Generator.pv_load_p6ulv2381_1 conn=wye bus1=p6ulv2381.1 kV=0.12 model=7 kW=0.23745709221030054 kvar=-0.0 Phases=1
New Generator.pv_load_p6ulv2383_1 conn=wye bus1=p6ulv2383.1 kV=0.12 model=7 kW=0.2825433111588519 kvar=-0.0 Phases=1
New Generator.pv_load_p6ulv2383_2 conn=wye bus1=p6ulv2383.2 kV=0.12 model=7 kW=0.2825433111588519 kvar=-0.0 Phases=1
New Generator.pv_load_p6ulv2384_1 conn=wye bus1=p6ulv2384.1 kV=0.12 model=7 kW=0.27502894133409334 kvar=-0.0 Phases=1
New Generator.pv_load_p6ulv2387_1 conn=wye bus1=p6ulv2387.1 kV=0.12 model=7 kW=0.5184960265302357 kvar=-0.0 Phases=1
New Generator.pv_load_p6ulv2388_2 conn=wye bus1=p6ulv2388.2 kV=0.12 model=7 kW=0.5335262690537179 kvar=-0.0 Phases=1
New Generator.pv_load_p6ulv2389_2 conn=wye bus1=p6ulv2389.2 kV=0.12 model=7 kW=0.3020806727032242 kvar=-0.0 Phases=1
New Generator.pv_load_p6ulv2390_1 conn=wye bus1=p6ulv2390.1 kV=0.12 model=7 kW=0.3471668916517756 kvar=-0.0 Phases=1
New Generator.pv_load_p6ulv2391_2 conn=wye bus1=p6ulv2391.2 kV=0.12 model=7 kW=0.25098295789486597 kvar=-0.0 Phases=1
New Generator.pv_load_p6ulv2392_1 conn=wye bus1=p6ulv2392.1 kV=0.12 model=7 kW=0.3546812614765341 kvar=-0.0 Phases=1
New Generator.pv_load_p6ulv2392_2 conn=wye bus1=p6ulv2392.2 kV=0.12 model=7 kW=0.3546812614765341 kvar=-0.0 Phases=1
New Generator.pv_load_p6ulv2397_1 conn=wye bus1=p6ulv2397.1 kV=0.12 model=7 kW=0.4463580762125536 kvar=-0.0 Phases=1
New Generator.pv_load_p6ulv2407_2 conn=wye bus1=p6ulv2407.2 kV=0.12 model=7 kW=0.339652521827017 kvar=-0.0 Phases=1
New Generator.pv_load_p6ulv2408_1 conn=wye bus1=p6ulv2408.1 kV=0.12 model=7 kW=0.37722587382477485 kvar=-0.0 Phases=1
New Generator.pv_load_p6ulv2411_2 conn=wye bus1=p6ulv2411.2 kV=0.12 model=7 kW=0.22392972365177016 kvar=-0.0 Phases=1
New Generator.pv_load_p6ulv2413_1 conn=wye bus1=p6ulv2413.1 kV=0.12 model=7 kW=0.24346858807010738 kvar=-0.0 Phases=1
New Generator.pv_load_p6ulv2415_1 conn=wye bus1=p6ulv2415.1 kV=0.12 model=7 kW=0.15179177333408797 kvar=-0.0 Phases=1
New Generator.pv_load_p6ulv2417_2 conn=wye bus1=p6ulv2417.2 kV=0.12 model=7 kW=0.10971085145325049 kvar=-0.0 Phases=1
New Generator.pv_load_p6ulv2419_1 conn=wye bus1=p6ulv2419.1 kV=0.12 model=7 kW=0.10820797748829879 kvar=-0.0 Phases=1
New Generator.pv_load_p6ulv2421_2 conn=wye bus1=p6ulv2421.2 kV=0.12 model=7 kW=0.08115594554437497 kvar=-0.0 Phases=1
New Generator.pv_load_p6ulv2422_2 conn=wye bus1=p6ulv2422.2 kV=0.12 model=7 kW=0.23745709221030054 kvar=-0.0 Phases=1
New Generator.pv_load_p6ulv2433 conn=wye bus1=p6ulv2433.1.2.3 kV=0.48 model=7 kW=23.835821543968557 kvar=-0.0 Phases=3
New Generator.pv_load_p6ulv2446_1 conn=wye bus1=p6ulv2446.1 kV=0.12 model=7 kW=0.15479752126399138 kvar=-0.0 Phases=1
New Generator.pv_load_p6ulv2447_2 conn=wye bus1=p6ulv2447.2 kV=0.12 model=7 kW=0.22693697445563854 kvar=-0.0 Phases=1
New Generator.pv_load_p6ulv2448_2 conn=wye bus1=p6ulv2447.2 kV=0.12 model=7 kW=0.18335212659807393 kvar=-0.0 Phases=1
New Generator.pv_load_p6ulv2452_1 conn=wye bus1=p6ulv2452.1 kV=0.12 model=7 kW=0.1818492526331222 kvar=-0.0 Phases=1
New Generator.pv_load_p6ulv2455_1 conn=wye bus1=p6ulv2455.1 kV=0.12 model=7 kW=0.21791822779196332 kvar=-0.0 Phases=1
New Generator.pv_load_p6ulv3610_2 conn=wye bus1=p6ulv3610.2 kV=0.12 model=7 kW=0.28855480701865877 kvar=-0.0 Phases=1
New Generator.pv_load_p6ulv3614_1 conn=wye bus1=p6ulv3614.1 kV=0.12 model=7 kW=0.17583775677331534 kvar=-0.0 Phases=1
New Generator.pv_load_p6ulv3627_1 conn=wye bus1=p6ulv3627.1 kV=0.12 model=7 kW=0.24046284014020394 kvar=-0.0 Phases=1
New Generator.pv_load_p6ulv4289_1 conn=wye bus1=p6ulv4289.1 kV=0.12 model=7 kW=1.584044187798755 kvar=-0.0 Phases=1
New Generator.pv_load_p6ulv4290_2 conn=wye bus1=p6ulv4290.2 kV=0.12 model=7 kW=0.4313293365630364 kvar=-0.0 Phases=1
New Generator.pv_load_p6ulv4291_1 conn=wye bus1=p6ulv4291.1 kV=0.12 model=7 kW=0.2164153538270116 kvar=-0.0 Phases=1
New Generator.pv_load_p6ulv4292_1 conn=wye bus1=p6ulv4292.1 kV=0.12 model=7 kW=0.19988374021254274 kvar=-0.0 Phases=1
New Generator.pv_load_p6ulv4301_1 conn=wye bus1=p6ulv4301.1 kV=0.12 model=7 kW=0.2554915797897211 kvar=-0.0 Phases=1
New Generator.pv_load_p6ulv4302_1 conn=wye bus1=p6ulv4302.1 kV=0.12 model=7 kW=0.18936362245788077 kvar=-0.0 Phases=1
New Generator.pv_load_p6ulv4310_1 conn=wye bus1=p6ulv4310.1 kV=0.12 model=7 kW=0.4959529170559602 kvar=-0.0 Phases=1
New Generator.pv_load_p6ulv8198_1 conn=wye bus1=p6ulv8198.1 kV=0.12 model=7 kW=0.18335212659807393 kvar=-0.0 Phases=1
New Generator.pv_load_p6ulv8198_2 conn=wye bus1=p6ulv8198.2 kV=0.12 model=7 kW=0.18335212659807393 kvar=-0.0 Phases=1
New Generator.pv_load_p6ulv8203_1 conn=wye bus1=p6ulv8203.1 kV=0.12 model=7 kW=1.2293629263222208 kvar=-0.0 Phases=1
New Generator.pv_load_p6ulv8204_1 conn=wye bus1=p6ulv8204.1 kV=0.12 model=7 kW=1.1452019842849248 kvar=-0.0 Phases=1
New Generator.pv_load_p6ulv8205_2 conn=wye bus1=p6ulv8205.2 kV=0.12 model=7 kW=0.26300594961447965 kvar=-0.0 Phases=1
New Generator.pv_load_p6ulv8206_1 conn=wye bus1=p6ulv8206.1 kV=0.12 model=7 kW=0.27502894133409334 kvar=-0.0 Phases=1
New Generator.pv_load_p6ulv8207_1 conn=wye bus1=p6ulv8207.1 kV=0.12 model=7 kW=0.28404618512380364 kvar=-0.0 Phases=1
New Generator.pv_load_p6ulv8208_1 conn=wye bus1=p6ulv8208.1 kV=0.12 model=7 kW=0.3336410259672101 kvar=-0.0 Phases=1
New Generator.pv_load_p6ulv8209_2 conn=wye bus1=p6ulv8209.2 kV=0.12 model=7 kW=0.3636985052662444 kvar=-0.0 Phases=1
New Generator.pv_load_p6ulv8214_1 conn=wye bus1=p6ulv8214.1 kV=0.12 model=7 kW=0.22392972365177016 kvar=-0.0 Phases=1
New Generator.pv_load_p6ulv8216_1 conn=wye bus1=p6ulv8216.1 kV=0.12 model=7 kW=0.3892488655443885 kvar=-0.0 Phases=1
New Generator.pv_load_p6ulv8217_2 conn=wye bus1=p6ulv8217.2 kV=0.12 model=7 kW=0.1908664964228325 kvar=-0.0 Phases=1
New Generator.pv_load_p6ulv8219_1 conn=wye bus1=p6ulv8219.1 kV=0.12 model=7 kW=0.4658954377569258 kvar=-0.0 Phases=1
New Generator.pv_load_p6ulv8219_2 conn=wye bus1=p6ulv8219.2 kV=0.12 model=7 kW=0.4658954377569258 kvar=-0.0 Phases=1
New Generator.pv_load_p6ulv11330_1 conn=wye bus1=p6ulv11330.1 kV=0.12 model=7 kW=0.1818492526331222 kvar=-0.0 Phases=1
New Generator.pv_load_p6ulv11333_2 conn=wye bus1=p6ulv11333.2 kV=0.12 model=7 kW=0.2058952360723496 kvar=-0.0 Phases=1
New Generator.pv_load_p6ulv11335_1 conn=wye bus1=p6ulv11335.1 kV=0.12 model=7 kW=0.3141036644228379 kvar=-0.0 Phases=1
New Generator.pv_load_p6ulv13840_1 conn=wye bus1=p6ulv13840.1 kV=0.12 model=7 kW=0.360692757336341 kvar=-0.0 Phases=1
New Generator.pv_load_p6ulv13842_1 conn=wye bus1=p6ulv13842.1 kV=0.12 model=7 kW=0.2464743360000108 kvar=-0.0 Phases=1
New Generator.pv_load_p6ulv13943_2 conn=wye bus1=p6ulv13943.2 kV=0.12 model=7 kW=0.33514389993216187 kvar=-0.0 Phases=1
New Generator.pv_load_p6ulv13946_2 conn=wye bus1=p6ulv13946.2 kV=0.12 model=7 kW=0.2449714620350591 kvar=-0.0 Phases=1
New Generator.pv_load_p6ulv13949_1 conn=wye bus1=p6ulv13949.1 kV=0.12 model=7 kW=0.25098295789486597 kvar=-0.0 Phases=1
New Generator.pv_load_p6ulv13950_2 conn=wye bus1=p6ulv13950.2 kV=0.12 model=7 kW=0.11271674967055043 kvar=-0.0 Phases=1
New Generator.pv_load_p6ulv13951_2 conn=wye bus1=p6ulv13951.2 kV=0.12 model=7 kW=0.19988374021254274 kvar=-0.0 Phases=1
New Generator.pv_load_p6ulv13952_1 conn=wye bus1=p6ulv13952.1 kV=0.12 model=7 kW=0.29757205080836907 kvar=-0.0 Phases=1
New Generator.pv_load_p6ulv13952_2 conn=wye bus1=p6ulv13952.2 kV=0.12 model=7 kW=0.29757205080836907 kvar=-0.0 Phases=1
New Generator.pv_load_p6ulv13953_2 conn=wye bus1=p6ulv13953.2 kV=0.12 model=7 kW=0.4012718572640022 kvar=-0.0 Phases=1
New Generator.pv_load_p6ulv13954_2 conn=wye bus1=p6ulv13954.2 kV=0.12 model=7 kW=0.3126007904578862 kvar=-0.0 Phases=1
New Generator.pv_load_p6ulv13957_1 conn=wye bus1=p6ulv13957.1 kV=0.12 model=7 kW=0.42832358863313297 kvar=-0.0 Phases=1
New Generator.pv_load_p6ulv13957_2 conn=wye bus1=p6ulv13957.2 kV=0.12 model=7 kW=0.42832358863313297 kvar=-0.0 Phases=1
New Generator.pv_load_p6ulv13958_1 conn=wye bus1=p6ulv13958.1 kV=0.12 model=7 kW=0.24948008392991425 kvar=-0.0 Phases=1
New Generator.pv_load_p6ulv13959_1 conn=wye bus1=p6ulv13959.1 kV=0.12 model=7 kW=0.39526036140419535 kvar=-0.0 Phases=1
New Generator.pv_load_p6ulv13960_2 conn=wye bus1=p6ulv13960.2 kV=0.12 model=7 kW=0.2960691768434174 kvar=-0.0 Phases=1
New Generator.pv_load_p6ulv13963_2 conn=wye bus1=p6ulv13963.2 kV=0.12 model=7 kW=0.14878602540418454 kvar=-0.0 Phases=1
New Generator.pv_load_p6ulv13964_2 conn=wye bus1=p6ulv13964.2 kV=0.12 model=7 kW=0.3697100011260513 kvar=-0.0 Phases=1
New Generator.pv_load_p6ulv13968_2 conn=wye bus1=p6ulv13968.2 kV=0.12 model=7 kW=0.22843984842059023 kvar=-0.0 Phases=1
New Generator.pv_load_p6ulv13970_2 conn=wye bus1=p6ulv13970.2 kV=0.12 model=7 kW=0.2554915797897211 kvar=-0.0 Phases=1
New Generator.pv_load_p6ulv13974_2 conn=wye bus1=p6ulv13974.2 kV=0.12 model=7 kW=0.14277437925698117 kvar=-0.0 Phases=1
New Generator.pv_load_p6ulv13979_1 conn=wye bus1=p6ulv13979.1 kV=0.12 model=7 kW=0.39075173950934017 kvar=-0.0 Phases=1
New Generator.pv_load_p6ulv13979_2 conn=wye bus1=p6ulv13979.2 kV=0.12 model=7 kW=0.39075173950934017 kvar=-0.0 Phases=1
New Generator.pv_load_p6ulv13981_1 conn=wye bus1=p6ulv13981.1 kV=0.12 model=7 kW=0.21040385796720473 kvar=-0.0 Phases=1
New Generator.pv_load_p6ulv13984_1 conn=wye bus1=p6ulv13984.1 kV=0.12 model=7 kW=0.24797720996496253 kvar=-0.0 Phases=1
New Generator.pv_load_p6ulv13988_1 conn=wye bus1=p6ulv13988.1 kV=0.12 model=7 kW=0.1457802774742811 kvar=-0.0 Phases=1
New Generator.pv_load_p6ulv14051_2 conn=wye bus1=p6ulv14051.2 kV=0.12 model=7 kW=0.48092417740644294 kvar=-0.0 Phases=1
New Generator.pv_load_p6ulv14055_1 conn=wye bus1=p6ulv14055.1 kV=0.12 model=7 kW=0.10520222955839537 kvar=-0.0 Phases=1
New Generator.pv_load_p6ulv14058_1 conn=wye bus1=p6ulv14058.1 kV=0.12 model=7 kW=0.25248583185981766 kvar=-0.0 Phases=1
New Generator.pv_load_p6ulv14061_1 conn=wye bus1=p6ulv14061.1 kV=0.12 model=7 kW=0.24346858807010738 kvar=-0.0 Phases=1
New Generator.pv_load_p6ulv14064_1 conn=wye bus1=p6ulv14064.1 kV=0.12 model=7 kW=0.17734063073826706 kvar=-0.0 Phases=1
New Generator.pv_load_p6ulv14066_1 conn=wye bus1=p6ulv14066.1 kV=0.12 model=7 kW=0.25098295789486597 kvar=-0.0 Phases=1
New Generator.pv_load_p6ulv14072_1 conn=wye bus1=p6ulv14072.1 kV=0.12 model=7 kW=0.19387224435273592 kvar=-0.0 Phases=1
New Generator.pv_load_p6ulv14085_2 conn=wye bus1=p6ulv14085.2 kV=0.12 model=7 kW=0.0616184337126062 kvar=-0.0 Phases=1
New Generator.pv_load_p6ulv14092_1 conn=wye bus1=p6ulv14092.1 kV=0.12 model=7 kW=0.1563003952289431 kvar=-0.0 Phases=1
New Generator.pv_load_p6ulv14098_2 conn=wye bus1=p6ulv14098.2 kV=0.12 model=7 kW=0.2600002016845762 kvar=-0.0 Phases=1
New Generator.pv_load_p6ulv14099_1 conn=wye bus1=p6ulv14099.1 kV=0.12 model=7 kW=0.21040385796720473 kvar=-0.0 Phases=1
New Generator.pv_load_p6ulv14108_1 conn=wye bus1=p6ulv14108.1 kV=0.12 model=7 kW=0.30959504252798276 kvar=-0.0 Phases=1
New Generator.pv_load_p6ulv14110_2 conn=wye bus1=p6ulv14110.2 kV=0.12 model=7 kW=0.22843984842059023 kvar=-0.0 Phases=1
New Generator.pv_load_p6ulv14115_2 conn=wye bus1=p6ulv14115.2 kV=0.12 model=7 kW=0.16080901712379822 kvar=-0.0 Phases=1
New Generator.pv_load_p6ulv14116_1 conn=wye bus1=p6ulv14116.1 kV=0.12 model=7 kW=0.1818492526331222 kvar=-0.0 Phases=1
New Generator.pv_load_p6ulv14116_2 conn=wye bus1=p6ulv14116.2 kV=0.12 model=7 kW=0.1818492526331222 kvar=-0.0 Phases=1
New Generator.pv_load_p6ulv14117_1 conn=wye bus1=p6ulv14117.1 kV=0.12 model=7 kW=0.09017333962148176 kvar=-0.0 Phases=1
New Generator.pv_load_p6ulv14119_2 conn=wye bus1=p6ulv14119.2 kV=0.12 model=7 kW=0.18635787452797736 kvar=-0.0 Phases=1
New Generator.pv_load_p6ulv14121_1 conn=wye bus1=p6ulv14121.1 kV=0.12 model=7 kW=0.22843984842059023 kvar=-0.0 Phases=1
New Generator.pv_load_p6ulv14125_2 conn=wye bus1=p6ulv14125.2 kV=0.12 model=7 kW=0.10971085145325049 kvar=-0.0 Phases=1
New Generator.pv_load_p6ulv14126_1 conn=wye bus1=p6ulv14126.1 kV=0.12 model=7 kW=0.22994272238554195 kvar=-0.0 Phases=1
New Generator.pv_load_p6ulv14128_1 conn=wye bus1=p6ulv14128.1 kV=0.12 model=7 kW=0.36670425319614786 kvar=-0.0 Phases=1
New Generator.pv_load_p6ulv14133_2 conn=wye bus1=p6ulv14133.2 kV=0.12 model=7 kW=0.46439256379197413 kvar=-0.0 Phases=1
New Generator.pv_load_p6ulv14137_1 conn=wye bus1=p6ulv14137.1 kV=0.12 model=7 kW=0.21340960589710817 kvar=-0.0 Phases=1
New Generator.pv_load_p6ulv14138_1 conn=wye bus1=p6ulv14138.1 kV=0.12 model=7 kW=0.2058952360723496 kvar=-0.0 Phases=1
New Generator.pv_load_p6ulv14141_2 conn=wye bus1=p6ulv14141.2 kV=0.12 model=7 kW=0.24196571410515566 kvar=-0.0 Phases=1
New Generator.pv_load_p6ulv14142 conn=wye bus1=p6ulv14142.1.2.3 kV=0.48 model=7 kW=7.595615191303854 kvar=-0.0 Phases=3
New Generator.pv_load_p6ulv14143_1 conn=wye bus1=p6ulv14143.1 kV=0.12 model=7 kW=0.12774563960746405 kvar=-0.0 Phases=1
New Generator.pv_load_p6ulv14146_1 conn=wye bus1=p6ulv14146.1 kV=0.12 model=7 kW=0.11121372541820221 kvar=-0.0 Phases=1
New Generator.pv_load_p6ulv14149_1 conn=wye bus1=p6ulv14149.1 kV=0.12 model=7 kW=0.20739811003730133 kvar=-0.0 Phases=1
New Generator.pv_load_p6ulv14150_2 conn=wye bus1=p6ulv14150.2 kV=0.12 model=7 kW=0.2600002016845762 kvar=-0.0 Phases=1
New Generator.pv_load_p6ulv14152_1 conn=wye bus1=p6ulv14152.1 kV=0.12 model=7 kW=0.580115361967221 kvar=-0.0 Phases=1
New Generator.pv_load_p6ulv14153_2 conn=wye bus1=p6ulv14153.2 kV=0.12 model=7 kW=0.360692757336341 kvar=-0.0 Phases=1
New Generator.pv_load_p6ulv14155_2 conn=wye bus1=p6ulv14155.2 kV=0.12 model=7 kW=0.120231119495309 kvar=-0.0 Phases=1
New Generator.pv_load_p6ulv14158_1 conn=wye bus1=p6ulv14158.1 kV=0.12 model=7 kW=0.10069360766354024 kvar=-0.0 Phases=1
New Generator.pv_load_p6ulv14158_2 conn=wye bus1=p6ulv14158.2 kV=0.12 model=7 kW=0.10069360766354024 kvar=-0.0 Phases=1
New Generator.pv_load_p6ulv14159_1 conn=wye bus1=p6ulv14159.1 kV=0.12 model=7 kW=0.27803468926399677 kvar=-0.0 Phases=1
New Generator.pv_load_p6ulv14160_1 conn=wye bus1=p6ulv14160.1 kV=0.12 model=7 kW=0.15930614315884653 kvar=-0.0 Phases=1
New Generator.pv_load_p6ulv14160_2 conn=wye bus1=p6ulv14160.2 kV=0.12 model=7 kW=0.15930614315884653 kvar=-0.0 Phases=1
New Generator.pv_load_p6ulv14170_1 conn=wye bus1=p6ulv14170.1 kV=0.12 model=7 kW=0.2464743360000108 kvar=-0.0 Phases=1
New Generator.pv_load_p6ulv14170_2 conn=wye bus1=p6ulv14170.2 kV=0.12 model=7 kW=0.2464743360000108 kvar=-0.0 Phases=1
New Generator.pv_load_p6ulv14172_1 conn=wye bus1=p6ulv14172.1 kV=0.12 model=7 kW=0.18485500056302565 kvar=-0.0 Phases=1
New Generator.pv_load_p6ulv14177_1 conn=wye bus1=p6ulv14177.1 kV=0.12 model=7 kW=0.2660116975443831 kvar=-0.0 Phases=1
New Generator.pv_load_p6ulv14179_2 conn=wye bus1=p6ulv14179.2 kV=0.12 model=7 kW=0.120231119495309 kvar=-0.0 Phases=1
New Generator.pv_load_p6ulv14180_2 conn=wye bus1=p6ulv14180.2 kV=0.12 model=7 kW=0.21491247986205989 kvar=-0.0 Phases=1
New Generator.pv_load_p6ulv14185_1 conn=wye bus1=p6ulv14185.1 kV=0.12 model=7 kW=0.11121372541820221 kvar=-0.0 Phases=1
New Generator.pv_load_p6ulv14187_1 conn=wye bus1=p6ulv14187.1 kV=0.12 model=7 kW=0.19838086624759108 kvar=-0.0 Phases=1
New Generator.pv_load_p6ulv14188_2 conn=wye bus1=p6ulv14188.2 kV=0.12 model=7 kW=0.799536463724136 kvar=-0.0 Phases=1
New Generator.pv_load_p6ulv14190 conn=wye bus1=p6ulv14190.1.2.3 kV=0.48 model=7 kW=14.947734742806231 kvar=-0.0 Phases=3
New Generator.pv_load_p6ulv14193_2 conn=wye bus1=p6ulv14193.2 kV=0.12 model=7 kW=0.30959504252798276 kvar=-0.0 Phases=1
New Generator.pv_load_p6ulv14196_1 conn=wye bus1=p6ulv14196.1 kV=0.12 model=7 kW=0.6312130767755794 kvar=-0.0 Phases=1
New Generator.pv_load_p6ulv14197_2 conn=wye bus1=p6ulv14197.2 kV=0.12 model=7 kW=0.40728335312380903 kvar=-0.0 Phases=1
New Generator.pv_load_p6ulv14201_2 conn=wye bus1=p6ulv14201.2 kV=0.12 model=7 kW=0.15780326919389484 kvar=-0.0 Phases=1
New Generator.pv_load_p6ulv14203_2 conn=wye bus1=p6ulv14203.2 kV=0.12 model=7 kW=0.3441611437218722 kvar=-0.0 Phases=1
New Generator.pv_load_p6ulv14204_1 conn=wye bus1=p6ulv14204.1 kV=0.12 model=7 kW=0.7018496560022748 kvar=-0.0 Phases=1
New Generator.pv_load_p6ulv14204_2 conn=wye bus1=p6ulv14204.2 kV=0.12 model=7 kW=0.7018496560022748 kvar=-0.0 Phases=1
New Generator.pv_load_p6ulv14206_2 conn=wye bus1=p6ulv14206.2 kV=0.12 model=7 kW=0.1923693703877842 kvar=-0.0 Phases=1
New Generator.pv_load_p6ulv14207_2 conn=wye bus1=p6ulv14207.2 kV=0.12 model=7 kW=0.360692757336341 kvar=-0.0 Phases=1
New Generator.pv_load_p6ulv14209_2 conn=wye bus1=p6ulv14209.2 kV=0.12 model=7 kW=0.1908664964228325 kvar=-0.0 Phases=1
New Generator.pv_load_p6ulv14211_1 conn=wye bus1=p6ulv14211.1 kV=0.12 model=7 kW=0.33213815200225844 kvar=-0.0 Phases=1
New Generator.pv_load_p6ulv14212_1 conn=wye bus1=p6ulv14212.1 kV=0.12 model=7 kW=0.23895996617525225 kvar=-0.0 Phases=1
New Generator.pv_load_p6ulv14217_2 conn=wye bus1=p6ulv14217.2 kV=0.12 model=7 kW=0.16682051298360506 kvar=-0.0 Phases=1
New Generator.pv_load_p6ulv14221_2 conn=wye bus1=p6ulv14221.2 kV=0.12 model=7 kW=0.725895639441502 kvar=-0.0 Phases=1
New Generator.pv_load_p6ulv17970_2 conn=wye bus1=p6ulv17970.2 kV=0.12 model=7 kW=0.07815019761447155 kvar=-0.0 Phases=1
New Generator.pv_load_p6ulv17972_1 conn=wye bus1=p6ulv17972.1 kV=0.12 model=7 kW=0.3306352780373067 kvar=-0.0 Phases=1
New Generator.pv_load_p6ulv17973_1 conn=wye bus1=p6ulv17973.1 kV=0.12 model=7 kW=0.2043923621073979 kvar=-0.0 Phases=1
New Generator.pv_load_p6ulv17976_1 conn=wye bus1=p6ulv17976.1 kV=0.12 model=7 kW=0.28855480701865877 kvar=-0.0 Phases=1
New Generator.pv_load_p6ulv17979_1 conn=wye bus1=p6ulv17979.1 kV=0.12 model=7 kW=0.19387224435273592 kvar=-0.0 Phases=1
New Generator.pv_load_p6ulv17981_1 conn=wye bus1=p6ulv17981.1 kV=0.12 model=7 kW=0.2795375632289485 kvar=-0.0 Phases=1
New Generator.pv_load_p6ulv17982_1 conn=wye bus1=p6ulv17982.1 kV=0.12 model=7 kW=0.44335232828265014 kvar=-0.0 Phases=1
New Generator.pv_load_p6ulv17983_2 conn=wye bus1=p6ulv17983.2 kV=0.12 model=7 kW=0.43283221052798815 kvar=-0.0 Phases=1
New Generator.pv_load_p6ulv17989_2 conn=wye bus1=p6ulv17989.2 kV=0.12 model=7 kW=0.2584973277196246 kvar=-0.0 Phases=1
New Generator.pv_load_p6ulv17990_1 conn=wye bus1=p6ulv17990.1 kV=0.12 model=7 kW=0.13826575736212604 kvar=-0.0 Phases=1
New Generator.pv_load_p6ulv17991_1 conn=wye bus1=p6ulv17991.1 kV=0.12 model=7 kW=0.27502894133409334 kvar=-0.0 Phases=1
New Generator.pv_load_p6ulv17992_1 conn=wye bus1=p6ulv17992.1 kV=0.12 model=7 kW=0.24948008392991425 kvar=-0.0 Phases=1
New Generator.pv_load_p6ulv17992_2 conn=wye bus1=p6ulv17992.2 kV=0.12 model=7 kW=0.24948008392991425 kvar=-0.0 Phases=1
New Generator.pv_load_p6ulv17994_2 conn=wye bus1=p6ulv17994.2 kV=0.12 model=7 kW=0.9783814713013197 kvar=-0.0 Phases=1
New Generator.pv_load_p6ulv17997_1 conn=wye bus1=p6ulv17997.1 kV=0.12 model=7 kW=0.329132404072355 kvar=-0.0 Phases=1
New Generator.pv_load_p6ulv18005_1 conn=wye bus1=p6ulv18005.1 kV=0.12 model=7 kW=0.34115539579196874 kvar=-0.0 Phases=1
New Generator.pv_load_p6ulv18009_2 conn=wye bus1=p6ulv18009.2 kV=0.12 model=7 kW=0.09919073369858854 kvar=-0.0 Phases=1
New Generator.pv_load_p6ulv18010_1 conn=wye bus1=p6ulv18009.1 kV=0.12 model=7 kW=0.3727157490559547 kvar=-0.0 Phases=1
New Generator.pv_load_p6ulv18010_2 conn=wye bus1=p6ulv18009.2 kV=0.12 model=7 kW=0.3727157490559547 kvar=-0.0 Phases=1
New Generator.pv_load_p6ulv18013_1 conn=wye bus1=p6ulv18013.1 kV=0.12 model=7 kW=0.3727157490559547 kvar=-0.0 Phases=1
New Generator.pv_load_p6ulv18013_2 conn=wye bus1=p6ulv18013.2 kV=0.12 model=7 kW=0.3727157490559547 kvar=-0.0 Phases=1
New Generator.pv_load_p6ulv18015_2 conn=wye bus1=p6ulv18015.2 kV=0.12 model=7 kW=0.20890098400225304 kvar=-0.0 Phases=1
New Generator.pv_load_p6ulv18017_1 conn=wye bus1=p6ulv18017.1 kV=0.12 model=7 kW=0.24196571410515566 kvar=-0.0 Phases=1
New Generator.pv_load_p6ulv18017_2 conn=wye bus1=p6ulv18017.2 kV=0.12 model=7 kW=0.24196571410515566 kvar=-0.0 Phases=1
New Generator.pv_load_p6ulv18020_1 conn=wye bus1=p6ulv18020.1 kV=0.12 model=7 kW=0.06312130767755791 kvar=-0.0 Phases=1
New Generator.pv_load_p6ulv18020_2 conn=wye bus1=p6ulv18020.2 kV=0.12 model=7 kW=0.06312130767755791 kvar=-0.0 Phases=1
New Generator.pv_load_p6ulv18025_1 conn=wye bus1=p6ulv18025.1 kV=0.12 model=7 kW=0.13075138753736748 kvar=-0.0 Phases=1
New Generator.pv_load_p6ulv18025_2 conn=wye bus1=p6ulv18025.2 kV=0.12 model=7 kW=0.13075138753736748 kvar=-0.0 Phases=1
New Generator.pv_load_p6ulv18027_2 conn=wye bus1=p6ulv18027.2 kV=0.12 model=7 kW=0.2900576809836105 kvar=-0.0 Phases=1
New Generator.pv_load_p6ulv18028_1 conn=wye bus1=p6ulv18028.1 kV=0.12 model=7 kW=0.2810404371939002 kvar=-0.0 Phases=1
New Generator.pv_load_p6ulv18032_1 conn=wye bus1=p6ulv18032.1 kV=0.12 model=7 kW=0.3922546134742919 kvar=-0.0 Phases=1
New Generator.pv_load_p6ulv18034_2 conn=wye bus1=p6ulv18034.2 kV=0.12 model=7 kW=0.33213815200225844 kvar=-0.0 Phases=1
New Generator.pv_load_p6ulv18037_2 conn=wye bus1=p6ulv18037.2 kV=0.12 model=7 kW=0.34115539579196874 kvar=-0.0 Phases=1
New Generator.pv_load_p6ulv18043_2 conn=wye bus1=p6ulv18043.2 kV=0.12 model=7 kW=0.3141036644228379 kvar=-0.0 Phases=1
New Generator.pv_load_p6ulv18044_1 conn=wye bus1=p6ulv18044.1 kV=0.12 model=7 kW=0.1698262609135085 kvar=-0.0 Phases=1
New Generator.pv_load_p6ulv18045_1 conn=wye bus1=p6ulv18045.1 kV=0.12 model=7 kW=0.15028889936913625 kvar=-0.0 Phases=1
New Generator.pv_load_p6ulv18045_2 conn=wye bus1=p6ulv18045.2 kV=0.12 model=7 kW=0.15028889936913625 kvar=-0.0 Phases=1
New Generator.pv_load_p6ulv18048_1 conn=wye bus1=p6ulv18048.1 kV=0.12 model=7 kW=0.22392972365177016 kvar=-0.0 Phases=1
New Generator.pv_load_p6ulv18051_2 conn=wye bus1=p6ulv18051.2 kV=0.12 model=7 kW=0.1352600094322226 kvar=-0.0 Phases=1
New Generator.pv_load_p6ulv18053_2 conn=wye bus1=p6ulv18053.2 kV=0.12 model=7 kW=0.9453167411984171 kvar=-0.0 Phases=1
New Generator.pv_load_p6ulv18055_2 conn=wye bus1=p6ulv18055.2 kV=0.12 model=7 kW=0.2900576809836105 kvar=-0.0 Phases=1
New Generator.pv_load_p6ulv18056_1 conn=wye bus1=p6ulv18056.1 kV=0.12 model=7 kW=0.11572249760045385 kvar=-0.0 Phases=1
New Generator.pv_load_p6ulv18056_2 conn=wye bus1=p6ulv18056.2 kV=0.12 model=7 kW=0.11572249760045385 kvar=-0.0 Phases=1
New Generator.pv_load_p6ulv18059_2 conn=wye bus1=p6ulv18059.2 kV=0.12 model=7 kW=0.26901744547428647 kvar=-0.0 Phases=1
New Generator.pv_load_p6ulv18060_2 conn=wye bus1=p6ulv18060.2 kV=0.12 model=7 kW=0.1352600094322226 kvar=-0.0 Phases=1
New Generator.pv_load_p6ulv18061_2 conn=wye bus1=p6ulv18061.2 kV=0.12 model=7 kW=0.21491247986205989 kvar=-0.0 Phases=1
New Generator.pv_load_p6ulv18062_1 conn=wye bus1=p6ulv18062.1 kV=0.12 model=7 kW=0.9362994974087068 kvar=-0.0 Phases=1
New Generator.pv_load_p6ulv18066_2 conn=wye bus1=p6ulv18066.2 kV=0.12 model=7 kW=0.3546812614765341 kvar=-0.0 Phases=1
New Generator.pv_load_p6ulv18068_1 conn=wye bus1=p6ulv18068.1 kV=0.12 model=7 kW=0.2720231934041899 kvar=-0.0 Phases=1
New Generator.pv_load_p6ulv18074_1 conn=wye bus1=p6ulv18074.1 kV=0.12 model=7 kW=0.10820797748829879 kvar=-0.0 Phases=1
New Generator.pv_load_p6ulv18075 conn=wye bus1=p6ulv18075.1.2.3 kV=0.48 model=7 kW=6.6066940648863275 kvar=-0.0 Phases=3
New Generator.pv_load_p6ulv18080_2 conn=wye bus1=p6ulv18080.2 kV=0.12 model=7 kW=0.21491247986205989 kvar=-0.0 Phases=1
New Generator.pv_load_p6ulv18081_1 conn=wye bus1=p6ulv18081.1 kV=0.12 model=7 kW=0.3381496478620653 kvar=-0.0 Phases=1
New Generator.pv_load_p6ulv18081_2 conn=wye bus1=p6ulv18081.2 kV=0.12 model=7 kW=0.3381496478620653 kvar=-0.0 Phases=1
New Generator.pv_load_p6ulv18082_1 conn=wye bus1=p6ulv18082.1 kV=0.12 model=7 kW=0.15179177333408797 kvar=-0.0 Phases=1
New Generator.pv_load_p6ulv18082_2 conn=wye bus1=p6ulv18082.2 kV=0.12 model=7 kW=0.15179177333408797 kvar=-0.0 Phases=1
New Generator.pv_load_p6ulv18086_1 conn=wye bus1=p6ulv18086.1 kV=0.12 model=7 kW=0.2058952360723496 kvar=-0.0 Phases=1
New Generator.pv_load_p6ulv18088_1 conn=wye bus1=p6ulv18088.1 kV=0.12 model=7 kW=0.18335212659807393 kvar=-0.0 Phases=1
New Generator.pv_load_p6ulv18089_2 conn=wye bus1=p6ulv18089.2 kV=0.12 model=7 kW=0.21942110175691504 kvar=-0.0 Phases=1
New Generator.pv_load_p6ulv18090_1 conn=wye bus1=p6ulv18090.1 kV=0.12 model=7 kW=0.2720231934041899 kvar=-0.0 Phases=1
New Generator.pv_load_p6ulv18090_2 conn=wye bus1=p6ulv18090.2 kV=0.12 model=7 kW=0.2720231934041899 kvar=-0.0 Phases=1
New Generator.pv_load_p6ulv18092_2 conn=wye bus1=p6ulv18092.2 kV=0.12 model=7 kW=0.2043923621073979 kvar=-0.0 Phases=1
New Generator.pv_load_p6ulv18093_1 conn=wye bus1=p6ulv18093.1 kV=0.12 model=7 kW=0.559075126457897 kvar=-0.0 Phases=1
New Generator.pv_load_p6ulv18093_2 conn=wye bus1=p6ulv18093.2 kV=0.12 model=7 kW=0.559075126457897 kvar=-0.0 Phases=1
New Generator.pv_load_p6ulv18094_1 conn=wye bus1=p6ulv18094.1 kV=0.12 model=7 kW=0.2795375632289485 kvar=-0.0 Phases=1
New Generator.pv_load_p6ulv18095_1 conn=wye bus1=p6ulv18095.1 kV=0.12 model=7 kW=0.15028889936913625 kvar=-0.0 Phases=1
New Generator.pv_load_p6ulv18096_1 conn=wye bus1=p6ulv18096.1 kV=0.12 model=7 kW=0.23895996617525225 kvar=-0.0 Phases=1
New Generator.pv_load_p6ulv18096_2 conn=wye bus1=p6ulv18096.2 kV=0.12 model=7 kW=0.23895996617525225 kvar=-0.0 Phases=1
New Generator.pv_load_p6ulv18100_2 conn=wye bus1=p6ulv18100.2 kV=0.12 model=7 kW=0.22693697445563854 kvar=-0.0 Phases=1
New Generator.pv_load_p6ulv18101_2 conn=wye bus1=p6ulv18101.2 kV=0.12 model=7 kW=0.1322542615023192 kvar=-0.0 Phases=1
New Generator.pv_load_p6ulv18106_1 conn=wye bus1=p6ulv18105.1 kV=0.12 model=7 kW=0.23895996617525225 kvar=-0.0 Phases=1
New Generator.pv_load_p6ulv18107_1 conn=wye bus1=p6ulv18107.1 kV=0.12 model=7 kW=0.18936362245788077 kvar=-0.0 Phases=1
New Generator.pv_load_p6ulv18109_1 conn=wye bus1=p6ulv18109.1 kV=0.12 model=7 kW=0.18786074849292905 kvar=-0.0 Phases=1
New Generator.pv_load_p6ulv18110_1 conn=wye bus1=p6ulv18110.1 kV=0.12 model=7 kW=0.22092397572186676 kvar=-0.0 Phases=1
New Generator.pv_load_p6ulv18110_2 conn=wye bus1=p6ulv18110.2 kV=0.12 model=7 kW=0.22092397572186676 kvar=-0.0 Phases=1
New Generator.pv_load_p6ulv18111_1 conn=wye bus1=p6ulv18111.1 kV=0.12 model=7 kW=0.2344513442803971 kvar=-0.0 Phases=1
New Generator.pv_load_p6ulv18112_1 conn=wye bus1=p6ulv18112.1 kV=0.12 model=7 kW=0.21040385796720473 kvar=-0.0 Phases=1
New Generator.pv_load_p6ulv18113_2 conn=wye bus1=p6ulv18113.2 kV=0.12 model=7 kW=0.22994272238554195 kvar=-0.0 Phases=1
New Generator.pv_load_p6ulv18115_2 conn=wye bus1=p6ulv18115.2 kV=0.12 model=7 kW=0.33514389993216187 kvar=-0.0 Phases=1
New Generator.pv_load_p6ulv18118_1 conn=wye bus1=p6ulv18118.1 kV=0.12 model=7 kW=0.4628896898270224 kvar=-0.0 Phases=1
New Generator.pv_load_p6ulv18123_2 conn=wye bus1=p6ulv18123.2 kV=0.12 model=7 kW=0.15930614315884653 kvar=-0.0 Phases=1
New Generator.pv_load_p6ulv18124_2 conn=wye bus1=p6ulv18124.2 kV=0.12 model=7 kW=0.1457802774742811 kvar=-0.0 Phases=1
New Generator.pv_load_p6ulv18130_2 conn=wye bus1=p6ulv18130.2 kV=0.12 model=7 kW=0.21040385796720473 kvar=-0.0 Phases=1
New Generator.pv_load_p6ulv18131_1 conn=wye bus1=p6ulv18131.1 kV=0.12 model=7 kW=0.26450882357943134 kvar=-0.0 Phases=1
New Generator.pv_load_p6ulv18133_2 conn=wye bus1=p6ulv18133.2 kV=0.12 model=7 kW=0.13075138753736748 kvar=-0.0 Phases=1
New Generator.pv_load_p6ulv18135_1 conn=wye bus1=p6ulv18135.1 kV=0.12 model=7 kW=0.3922546134742919 kvar=-0.0 Phases=1
New Generator.pv_load_p6ulv18138_1 conn=wye bus1=p6ulv18138.1 kV=0.12 model=7 kW=0.1322542615023192 kvar=-0.0 Phases=1