New Generator.pv_load_p6ulv13785_1 conn=wye bus1=p6ulv13785.1 kV=0.12 model=7 kW=0.19838086624759108 kvar=-0.0 Phases=1
New Generator.pv_load_p6ulv13792_1 conn=wye bus1=p6ulv13792.1 kV=0.12 model=7 kW=0.16531763901865335 kvar=-0.0 Phases=1
New Generator.pv_load_p6ulv13792_2 conn=wye bus1=p6ulv13792.2 kV=0.12 model=7 kW=0.16531763901865335 kvar=-0.0 Phases=1
New Generator.pv_load_p6ulv13793_2 conn=wye bus1=p6ulv13793.2 kV=0.12 model=7 kW=0.5635837483527522 kvar=-0.0 Phases=1
New Generator.pv_load_p6ulv13795_1 conn=wye bus1=p6ulv13795.1 kV=0.12 model=7 kW=2.30844446764513 kvar=-0.0 Phases=1
New Generator.pv_load_p6ulv13797_2 conn=wye bus1=p6ulv13797.2 kV=0.12 model=7 kW=0.33514389993216187 kvar=-0.0 Phases=1
New Generator.pv_load_p6ulv13800_2 conn=wye bus1=p6ulv13800.2 kV=0.12 model=7 kW=0.2600002016845762 kvar=-0.0 Phases=1
New Generator.pv_load_p6ulv14405_2 conn=wye bus1=p6ulv14405.2 kV=0.12 model=7 kW=0.16381476505370163 kvar=-0.0 Phases=1
New Generator.pv_load_p6ulv14406_2 conn=wye bus1=p6ulv14406.2 kV=0.12 model=7 kW=0.08716759169157832 kvar=-0.0 Phases=1
New Generator.pv_load_p6ulv14408_1 conn=wye bus1=p6ulv14408.1 kV=0.12 model=7 kW=0.24948008392991425 kvar=-0.0 Phases=1
New Generator.pv_load_p6ulv14410_1 conn=wye bus1=p6ulv14410.1 kV=0.12 model=7 kW=0.18335212659807393 kvar=-0.0 Phases=1
New Generator.pv_load_p6ulv14410_2 conn=wye bus1=p6ulv14410.2 kV=0.12 model=7 kW=0.18335212659807393 kvar=-0.0 Phases=1
New Generator.pv_load_p6ulv14413_2 conn=wye bus1=p6ulv14413.2 kV=0.12 model=7 kW=0.10369935559344366 kvar=-0.0 Phases=1
New Generator.pv_load_p6ulv14414_2 conn=wye bus1=p6ulv14414.2 kV=0.12 model=7 kW=0.17433488280836365 kvar=-0.0 Phases=1
New Generator.pv_load_p6ulv14576_1 conn=wye bus1=p6ulv14576.1 kV=0.12 model=7 kW=0.1818492526331222 kvar=-0.0 Phases=1
New Generator.pv_load_p6ulv14576_2 conn=wye bus1=p6ulv14576.2 kV=0.12 model=7 kW=0.1818492526331222 kvar=-0.0 Phases=1
New Generator.pv_load_p6ulv14579_2 conn=wye bus1=p6ulv14579.2 kV=0.12 model=7 kW=0.32762953010740326 kvar=-0.0 Phases=1
New Generator.pv_load_p6ulv14581_1 conn=wye bus1=p6ulv14581.1 kV=0.12 model=7 kW=0.470404059651781 kvar=-0.0 Phases=1
New Generator.pv_load_p6ulv14582_2 conn=wye bus1=p6ulv14582.2 kV=0.12 model=7 kW=0.21190673193215645 kvar=-0.0 Phases=1
New Generator.pv_load_p6ulv14585_2 conn=wye bus1=p6ulv14585.2 kV=0.12 model=7 kW=0.39075173950934017 kvar=-0.0 Phases=1
New Generator.pv_load_p6ulv14586_2 conn=wye bus1=p6ulv14586.2 kV=0.12 model=7 kW=0.16832338694855678 kvar=-0.0 Phases=1
New Generator.pv_load_p6ulv14587_1 conn=wye bus1=p6ulv14587.1 kV=0.12 model=7 kW=0.8010393376890876 kvar=-0.0 Phases=1
New Generator.pv_load_p6ulv14587_2 conn=wye bus1=p6ulv14587.2 kV=0.12 model=7 kW=0.8010393376890876 kvar=-0.0 Phases=1
New Generator.pv_load_p6ulv14588_1 conn=wye bus1=p6ulv14588.1 kV=0.12 model=7 kW=0.329132404072355 kvar=-0.0 Phases=1
New Generator.pv_load_p6ulv14588_2 conn=wye bus1=p6ulv14588.2 kV=0.12 model=7 kW=0.329132404072355 kvar=-0.0 Phases=1
New Generator.pv_load_p6ulv14590_2 conn=wye bus1=p6ulv14590.2 kV=0.12 model=7 kW=0.09317908755138515 kvar=-0.0 Phases=1
New Generator.pv_load_p6ulv16573_1 conn=wye bus1=p6ulv16573.1 kV=0.12 model=7 kW=0.15479752126399138 kvar=-0.0 Phases=1
New Generator.pv_load_p6ulv16575_2 conn=wye bus1=p6ulv16575.2 kV=0.12 model=7 kW=0.4298264625980847 kvar=-0.0 Phases=1
New Generator.pv_load_p6ulv16576_1 conn=wye bus1=p6ulv16576.1 kV=0.12 model=7 kW=0.21942110175691504 kvar=-0.0 Phases=1
New Generator.pv_load_p6ulv16577_1 conn=wye bus1=p6ulv16577.1 kV=0.12 model=7 kW=0.6417331945302411 kvar=-0.0 Phases=1
New Generator.pv_load_p6ulv16577_2 conn=wye bus1=p6ulv16577.2 kV=0.12 model=7 kW=0.6417331945302411 kvar=-0.0 Phases=1
New Generator.pv_load_p6ulv16595_1 conn=wye bus1=p6ulv16595.1 kV=0.12 model=7 kW=0.4448552022476019 kvar=-0.0 Phases=1
New Generator.pv_load_p6ulv16596_1 conn=wye bus1=p6ulv16596.1 kV=0.12 model=7 kW=0.31861228631769306 kvar=-0.0 Phases=1
New Generator.pv_load_p6ulv16597_1 conn=wye bus1=p6ulv16597.1 kV=0.12 model=7 kW=0.28554905908875533 kvar=-0.0 Phases=1
New Generator.pv_load_p6ulv16600_2 conn=wye bus1=p6ulv16600.2 kV=0.12 model=7 kW=0.2675145715093348 kvar=-0.0 Phases=1
New Generator.pv_load_p6ulv16601_1 conn=wye bus1=p6ulv16601.1 kV=0.12 model=7 kW=0.5365320169836213 kvar=-0.0 Phases=1
New Generator.pv_load_p6ulv16604_1 conn=wye bus1=p6ulv16604.1 kV=0.12 model=7 kW=0.3832373696845817 kvar=-0.0 Phases=1
New Generator.pv_load_p6ulv16608_1 conn=wye bus1=p6ulv16608.1 kV=0.12 model=7 kW=0.584623983862076 kvar=-0.0 Phases=1
New Generator.pv_load_p6ulv16611_2 conn=wye bus1=p6ulv16611.2 kV=0.12 model=7 kW=0.4583810679321673 kvar=-0.0 Phases=1
New Generator.pv_load_p6ulv16612_1 conn=wye bus1=p6ulv16612.1 kV=0.12 model=7 kW=0.34265826975692043 kvar=-0.0 Phases=1
New Generator.pv_load_p6ulv16612_2 conn=wye bus1=p6ulv16612.2 kV=0.12 model=7 kW=0.34265826975692043 kvar=-0.0 Phases=1
New Generator.pv_load_p6ulv16815_2 conn=wye bus1=p6ulv16815.2 kV=0.12 model=7 kW=0.18936362245788077 kvar=-0.0 Phases=1
New Generator.pv_load_p6ulv16818_1 conn=wye bus1=p6ulv16818.1 kV=0.12 model=7 kW=0.5425435128434282 kvar=-0.0 Phases=1
New Generator.pv_load_p6ulv16819_1 conn=wye bus1=p6ulv16819.1 kV=0.12 model=7 kW=0.2600002016845762 kvar=-0.0 Phases=1
New Generator.pv_load_p6ulv16819_2 conn=wye bus1=p6ulv16819.2 kV=0.12 model=7 kW=0.2600002016845762 kvar=-0.0 Phases=1
New Generator.pv_load_p6ulv16821_1 conn=wye bus1=p6ulv16821.1 kV=0.12 model=7 kW=0.06312130767755791 kvar=-0.0 Phases=1
New Generator.pv_load_p6ulv16825_1 conn=wye bus1=p6ulv16825.1 kV=0.12 model=7 kW=0.35317838751158254 kvar=-0.0 Phases=1
New Generator.pv_load_p6ulv16829_1 conn=wye bus1=p6ulv16829.1 kV=0.12 model=7 kW=0.371212875091003 kvar=-0.0 Phases=1
New Generator.pv_load_p6ulv16830_2 conn=wye bus1=p6ulv16830.2 kV=0.12 model=7 kW=0.3126007904578862 kvar=-0.0 Phases=1
New Generator.pv_load_p6ulv16835_2 conn=wye bus1=p6ulv16835.2 kV=0.12 model=7 kW=0.3892488655443885 kvar=-0.0 Phases=1
New Generator.pv_load_p6ulv16838_1 conn=wye bus1=p6ulv16838.1 kV=0.12 model=7 kW=0.3997689832990505 kvar=-0.0 Phases=1
New Generator.pv_load_p6ulv16840_2 conn=wye bus1=p6ulv16840.2 kV=0.12 model=7 kW=0.7830048501096671 kvar=-0.0 Phases=1
New Generator.pv_load_p6ulv16841_1 conn=wye bus1=p6ulv16841.1 kV=0.12 model=7 kW=0.2449714620350591 kvar=-0.0 Phases=1
New Generator.pv_load_p6ulv16842_1 conn=wye bus1=p6ulv16842.1 kV=0.12 model=7 kW=0.2870519330537071 kvar=-0.0 Phases=1
New Generator.pv_load_p6ulv17770_2 conn=wye bus1=p6ulv17770.2 kV=0.12 model=7 kW=0.2344513442803971 kvar=-0.0 Phases=1
New Generator.pv_load_p6ulv17772_1 conn=wye bus1=p6ulv17772.1 kV=0.12 model=7 kW=0.3802316217546783 kvar=-0.0 Phases=1
New Generator.pv_load_p6ulv17772_2 conn=wye bus1=p6ulv17772.2 kV=0.12 model=7 kW=0.3802316217546783 kvar=-0.0 Phases=1
New Generator.pv_load_p6ulv17775_2 conn=wye bus1=p6ulv17775.2 kV=0.12 model=7 kW=0.1232368674252124 kvar=-0.0 Phases=1
New Generator.pv_load_p6ulv19751_2 conn=wye bus1=p6ulv19751.2 kV=0.12 model=7 kW=0.17132913487846022 kvar=-0.0 Phases=1
New Generator.pv_load_p6ulv19752_2 conn=wye bus1=p6ulv19752.2 kV=0.12 model=7 kW=0.30358354666817594 kvar=-0.0 Phases=1
New Generator.pv_load_p6ulv19753_1 conn=wye bus1=p6ulv19753.1 kV=0.12 model=7 kW=0.47340980758168444 kvar=-0.0 Phases=1
New Generator.pv_load_p6ulv19753_2 conn=wye bus1=p6ulv19753.2 kV=0.12 model=7 kW=0.47340980758168444 kvar=-0.0 Phases=1
New Generator.pv_load_p6ulv19755_2 conn=wye bus1=p6ulv19755.2 kV=0.12 model=7 kW=0.23144559635049367 kvar=-0.0 Phases=1
New Generator.pv_load_p6ulv19758_1 conn=wye bus1=p6ulv19758.1 kV=0.12 model=7 kW=0.1563003952289431 kvar=-0.0 Phases=1
New Generator.pv_load_p6ulv22233_1 conn=wye bus1=p6ulv22233.1 kV=0.12 model=7 kW=0.6522533122849032 kvar=-0.0 Phases=1
New Generator.pv_load_p6ulv23211_2 conn=wye bus1=p6ulv23211.2 kV=0.12 model=7 kW=0.17583775677331534 kvar=-0.0 Phases=1
New Generator.pv_load_p6ulv23213_1 conn=wye bus1=p6ulv23213.1 kV=0.12 model=7 kW=0.3126007904578862 kvar=-0.0 Phases=1
New Generator.pv_load_p6ulv23214_2 conn=wye bus1=p6ulv23214.2 kV=0.12 model=7 kW=0.20138661417749446 kvar=-0.0 Phases=1
New Generator.pv_load_p6ulv23215_1 conn=wye bus1=p6ulv23215.1 kV=0.12 model=7 kW=0.31109791649293445 kvar=-0.0 Phases=1
New Generator.pv_load_p6ulv23216_1 conn=wye bus1=p6ulv23216.1 kV=0.12 model=7 kW=0.24196571410515566 kvar=-0.0 Phases=1
New Generator.pv_load_p6ulv23216_2 conn=wye bus1=p6ulv23216.2 kV=0.12 model=7 kW=0.24196571410515566 kvar=-0.0 Phases=1
New Generator.pv_load_p6ulv23217_2 conn=wye bus1=p6ulv23217.2 kV=0.12 model=7 kW=0.07664732364951983 kvar=-0.0 Phases=1
New Generator.pv_load_p6ulv23224_2 conn=wye bus1=p6ulv23224.2 kV=0.12 model=7 kW=0.23745709221030054 kvar=-0.0 Phases=1
New Generator.pv_load_p6ulv23225_2 conn=wye bus1=p6ulv23225.2 kV=0.12 model=7 kW=0.3997689832990505 kvar=-0.0 Phases=1
New Generator.pv_load_p6ulv23228_1 conn=wye bus1=p6ulv23228.1 kV=0.12 model=7 kW=0.24046284014020394 kvar=-0.0 Phases=1
New Generator.pv_load_p6ulv23232_1 conn=wye bus1=p6ulv23232.1 kV=0.12 model=7 kW=0.2043923621073979 kvar=-0.0 Phases=1
New Generator.pv_load_p6ulv23350_1 conn=wye bus1=p6ulv23350.1 kV=0.12 model=7 kW=0.43433508449293984 kvar=-0.0 Phases=1
New Generator.pv_load_p6ulv23357_1 conn=wye bus1=p6ulv23357.1 kV=0.12 model=7 kW=0.34566401768682387 kvar=-0.0 Phases=1
New Generator.pv_load_p6ulv23358_1 conn=wye bus1=p6ulv23358.1 kV=0.12 model=7 kW=0.26300594961447965 kvar=-0.0 Phases=1
New Generator.pv_load_p6ulv23359_1 conn=wye bus1=p6ulv23359.1 kV=0.12 model=7 kW=0.20288948814244617 kvar=-0.0 Phases=1
New Generator.pv_load_p6ulv23360_1 conn=wye bus1=p6ulv23360.1 kV=0.12 model=7 kW=0.2539887058247694 kvar=-0.0 Phases=1
New Generator.pv_load_p6ulv23378_2 conn=wye bus1=p6ulv23378.2 kV=0.12 model=7 kW=0.09618483548128859 kvar=-0.0 Phases=1
New Generator.pv_load_p6ulv26802_1 conn=wye bus1=p6ulv26802.1 kV=0.12 model=7 kW=2.816415867798809 kvar=-0.0 Phases=1
New Generator.pv_load_p6ulv26806_1 conn=wye bus1=p6ulv26806.1 kV=0.12 model=7 kW=0.25699445375467284 kvar=-0.0 Phases=1
New Generator.pv_load_p6ulv26808_2 conn=wye bus1=p6ulv26808.2 kV=0.12 model=7 kW=0.674796421759179 kvar=-0.0 Phases=1
New Generator.pv_load_p6ulv26811_1 conn=wye bus1=p6ulv26811.1 kV=0.12 model=7 kW=0.21942110175691504 kvar=-0.0 Phases=1
