New Load.motor_load_p6ulv246_1 conn=wye bus1=p6ulv246.1 kV=0.12 kW=1.20961745532394 kvar=0.24192349106478803 Phases=1 Vminpu=0.0 Vmaxpu=1.2 model=1
New Load.motor_load_p6ulv246_2 conn=wye bus1=p6ulv246.2 kV=0.12 kW=1.1511783084710001 kvar=0.23023566169420004 Phases=1 Vminpu=0.0 Vmaxpu=1.2 model=1
New Load.motor_load_p6ulv247_1 conn=wye bus1=p6ulv247.1 kV=0.12 kW=1.079470635035284 kvar=0.21589412700705682 Phases=1 Vminpu=0.0 Vmaxpu=1.2 model=1
New Load.motor_load_p6ulv248_1 conn=wye bus1=p6ulv248.1 kV=0.12 kW=1.1472466854856964 kvar=0.2294493370971393 Phases=1 Vminpu=0.0 Vmaxpu=1.2 model=1
New Load.motor_load_p6ulv248_2 conn=wye bus1=p6ulv248.2 kV=0.12 kW=1.213577850979036 kvar=0.24271557019580722 Phases=1 Vminpu=0.0 Vmaxpu=1.2 model=1
New Load.motor_load_p6ulv250_1 conn=wye bus1=p6ulv250.1 kV=0.12 kW=1.1828996330138764 kvar=0.23657992660277527 Phases=1 Vminpu=0.0 Vmaxpu=1.2 model=1
New Load.motor_load_p6ulv251_2 conn=wye bus1=p6ulv251.2 kV=0.12 kW=1.1541165226446168 kvar=0.23082330452892338 Phases=1 Vminpu=0.0 Vmaxpu=1.2 model=1
New Load.motor_load_p6ulv254_1 conn=wye bus1=p6ulv254.1 kV=0.12 kW=1.1881539571895503 kvar=0.23763079143791008 Phases=1 Vminpu=0.0 Vmaxpu=1.2 model=1
New Load.motor_load_p6ulv254_2 conn=wye bus1=p6ulv254.2 kV=0.12 kW=1.1245676722563038 kvar=0.22491353445126078 Phases=1 Vminpu=0.0 Vmaxpu=1.2 model=1
New Load.motor_load_p6ulv255_2 conn=wye bus1=p6ulv255.2 kV=0.12 kW=1.1366468165605808 kvar=0.22732936331211617 Phases=1 Vminpu=0.0 Vmaxpu=1.2 model=1
New Load.motor_load_p6ulv256_2 conn=wye bus1=p6ulv256.2 kV=0.12 kW=1.1813634952119048 kvar=0.23627269904238096 Phases=1 Vminpu=0.0 Vmaxpu=1.2 model=1
New Load.motor_load_p6ulv259_2 conn=wye bus1=p6ulv259.2 kV=0.12 kW=1.133586168835899 kvar=0.2267172337671798 Phases=1 Vminpu=0.0 Vmaxpu=1.2 model=1
New Load.motor_load_p6ulv261_2 conn=wye bus1=p6ulv261.2 kV=0.12 kW=1.1726437017336748 kvar=0.234528740346735 Phases=1 Vminpu=0.0 Vmaxpu=1.2 model=1
New Load.motor_load_p6ulv262_1 conn=wye bus1=p6ulv262.1 kV=0.12 kW=1.187465542456782 kvar=0.2374931084913564 Phases=1 Vminpu=0.0 Vmaxpu=1.2 model=1
New Load.motor_load_p6ulv264_2 conn=wye bus1=p6ulv264.2 kV=0.12 kW=1.159067656648324 kvar=0.2318135313296648 Phases=1 Vminpu=0.0 Vmaxpu=1.2 model=1
New Load.motor_load_p6ulv265_1 conn=wye bus1=p6ulv265.1 kV=0.12 kW=1.2216975561062546 kvar=0.24433951122125094 Phases=1 Vminpu=0.0 Vmaxpu=1.2 model=1
New Load.motor_load_p6ulv265_2 conn=wye bus1=p6ulv265.2 kV=0.12 kW=1.0679694962889463 kvar=0.21359389925778927 Phases=1 Vminpu=0.0 Vmaxpu=1.2 model=1
New Load.motor_load_p6ulv271_2 conn=wye bus1=p6ulv271.2 kV=0.12 kW=1.131630684693529 kvar=0.2263261369387058 Phases=1 Vminpu=0.0 Vmaxpu=1.2 model=1
New Load.motor_load_p6ulv273_1 conn=wye bus1=p6ulv273.1 kV=0.12 kW=1.1256164568158895 kvar=0.2251232913631779 Phases=1 Vminpu=0.0 Vmaxpu=1.2 model=1
New Load.motor_load_p6ulv275_2 conn=wye bus1=p6ulv275.2 kV=0.12 kW=1.1147388794153084 kvar=0.2229477758830617 Phases=1 Vminpu=0.0 Vmaxpu=1.2 model=1
New Load.motor_load_p6ulv277_1 conn=wye bus1=p6ulv277.1 kV=0.12 kW=1.205931695959613 kvar=0.2411863391919226 Phases=1 Vminpu=0.0 Vmaxpu=1.2 model=1
New Load.motor_load_p6ulv277_2 conn=wye bus1=p6ulv277.2 kV=0.12 kW=1.2029403316109908 kvar=0.24058806632219817 Phases=1 Vminpu=0.0 Vmaxpu=1.2 model=1
New Load.motor_load_p6ulv279_1 conn=wye bus1=p6ulv279.1 kV=0.12 kW=1.1441753143727011 kvar=0.22883506287454025 Phases=1 Vminpu=0.0 Vmaxpu=1.2 model=1
New Load.motor_load_p6ulv280_1 conn=wye bus1=p6ulv280.1 kV=0.12 kW=1.0887137027241243 kvar=0.21774274054482487 Phases=1 Vminpu=0.0 Vmaxpu=1.2 model=1
New Load.motor_load_p6ulv281_1 conn=wye bus1=p6ulv281.1 kV=0.12 kW=1.2187704251127185 kvar=0.2437540850225437 Phases=1 Vminpu=0.0 Vmaxpu=1.2 model=1
New Load.motor_load_p6ulv284_1 conn=wye bus1=p6ulv284.1 kV=0.12 kW=1.1907728904632522 kvar=0.23815457809265045 Phases=1 Vminpu=0.0 Vmaxpu=1.2 model=1
New Load.motor_load_p6ulv284_2 conn=wye bus1=p6ulv284.2 kV=0.12 kW=1.2003813231932772 kvar=0.24007626463865545 Phases=1 Vminpu=0.0 Vmaxpu=1.2 model=1
New Load.motor_load_p6ulv286_2 conn=wye bus1=p6ulv286.2 kV=0.12 kW=1.2262797655272324 kvar=0.24525595310544648 Phases=1 Vminpu=0.0 Vmaxpu=1.2 model=1
New Load.motor_load_p6ulv289_2 conn=wye bus1=p6ulv289.2 kV=0.12 kW=1.0863603934773018 kvar=0.2172720786954604 Phases=1 Vminpu=0.0 Vmaxpu=1.2 model=1
New Load.motor_load_p6ulv290_2 conn=wye bus1=p6ulv290.2 kV=0.12 kW=1.186572246138652 kvar=0.23731444922773043 Phases=1 Vminpu=0.0 Vmaxpu=1.2 model=1
New Load.motor_load_p6ulv291_1 conn=wye bus1=p6ulv291.1 kV=0.12 kW=1.2519610246298027 kvar=0.25039220492596054 Phases=1 Vminpu=0.0 Vmaxpu=1.2 model=1
New Load.motor_load_p6ulv294_2 conn=wye bus1=p6ulv294.2 kV=0.12 kW=1.227401615286916 kvar=0.2454803230573832 Phases=1 Vminpu=0.0 Vmaxpu=1.2 model=1
New Load.motor_load_p6ulv295_2 conn=wye bus1=p6ulv295.2 kV=0.12 kW=1.0786073301476242 kvar=0.21572146602952486 Phases=1 Vminpu=0.0 Vmaxpu=1.2 model=1
New Load.motor_load_p6ulv297_1 conn=wye bus1=p6ulv297.1 kV=0.12 kW=1.2220105134301424 kvar=0.2444021026860285 Phases=1 Vminpu=0.0 Vmaxpu=1.2 model=1
New Load.motor_load_p6ulv297_2 conn=wye bus1=p6ulv297.2 kV=0.12 kW=1.2436520635616548 kvar=0.24873041271233098 Phases=1 Vminpu=0.0 Vmaxpu=1.2 model=1
New Load.motor_load_p6ulv299_2 conn=wye bus1=p6ulv299.2 kV=0.12 kW=1.0925103466860178 kvar=0.21850206933720356 Phases=1 Vminpu=0.0 Vmaxpu=1.2 model=1
New Load.motor_load_p6ulv300_1 conn=wye bus1=p6ulv300.1 kV=0.12 kW=1.2590356889260357 kvar=0.25180713778520714 Phases=1 Vminpu=0.0 Vmaxpu=1.2 model=1
New Load.motor_load_p6ulv303_1 conn=wye bus1=p6ulv303.1 kV=0.12 kW=1.2556606066459328 kvar=0.25113212132918655 Phases=1 Vminpu=0.0 Vmaxpu=1.2 model=1
New Load.motor_load_p6ulv305_1 conn=wye bus1=p6ulv305.1 kV=0.12 kW=1.2209731689076277 kvar=0.24419463378152556 Phases=1 Vminpu=0.0 Vmaxpu=1.2 model=1
New Load.motor_load_p6ulv306_2 conn=wye bus1=p6ulv306.2 kV=0.12 kW=1.2405470586974021 kvar=0.24810941173948042 Phases=1 Vminpu=0.0 Vmaxpu=1.2 model=1
New Load.motor_load_p6ulv307_2 conn=wye bus1=p6ulv307.2 kV=0.12 kW=1.2257897746563897 kvar=0.24515795493127795 Phases=1 Vminpu=0.0 Vmaxpu=1.2 model=1
New Load.motor_load_p6ulv308_2 conn=wye bus1=p6ulv308.2 kV=0.12 kW=1.1413738987603035 kvar=0.2282747797520607 Phases=1 Vminpu=0.0 Vmaxpu=1.2 model=1
New Load.motor_load_p6ulv313_1 conn=wye bus1=p6ulv313.1 kV=0.12 kW=1.1885952951349363 kvar=0.23771905902698728 Phases=1 Vminpu=0.0 Vmaxpu=1.2 model=1
New Load.motor_load_p6ulv314_2 conn=wye bus1=p6ulv314.2 kV=0.12 kW=1.212025351844955 kvar=0.24240507036899103 Phases=1 Vminpu=0.0 Vmaxpu=1.2 model=1
New Load.motor_load_p6ulv315_1 conn=wye bus1=p6ulv315.1 kV=0.12 kW=1.2590633621924405 kvar=0.2518126724384881 Phases=1 Vminpu=0.0 Vmaxpu=1.2 model=1
New Load.motor_load_p6ulv319_2 conn=wye bus1=p6ulv319.2 kV=0.12 kW=1.1295861989564222 kvar=0.22591723979128445 Phases=1 Vminpu=0.0 Vmaxpu=1.2 model=1
New Load.motor_load_p6ulv320_2 conn=wye bus1=p6ulv320.2 kV=0.12 kW=1.1437530353668528 kvar=0.22875060707337058 Phases=1 Vminpu=0.0 Vmaxpu=1.2 model=1
New Load.motor_load_p6ulv321_2 conn=wye bus1=p6ulv321.2 kV=0.12 kW=1.073885038099105 kvar=0.214777007619821 Phases=1 Vminpu=0.0 Vmaxpu=1.2 model=1
New Load.motor_load_p6ulv323_2 conn=wye bus1=p6ulv323.2 kV=0.12 kW=1.1775192682923477 kvar=0.23550385365846954 Phases=1 Vminpu=0.0 Vmaxpu=1.2 model=1
New Load.motor_load_p6ulv324_2 conn=wye bus1=p6ulv324.2 kV=0.12 kW=1.1543158119117292 kvar=0.23086316238234583 Phases=1 Vminpu=0.0 Vmaxpu=1.2 model=1
New Load.motor_load_p6ulv326_1 conn=wye bus1=p6ulv324.1 kV=0.12 kW=1.1082263855913157 kvar=0.22164527711826315 Phases=1 Vminpu=0.0 Vmaxpu=1.2 model=1
New Load.motor_load_p6ulv329_2 conn=wye bus1=p6ulv329.2 kV=0.12 kW=1.0820180155980343 kvar=0.21640360311960688 Phases=1 Vminpu=0.0 Vmaxpu=1.2 model=1
New Load.motor_load_p6ulv331_1 conn=wye bus1=p6ulv331.1 kV=0.12 kW=1.1978107164717593 kvar=0.23956214329435188 Phases=1 Vminpu=0.0 Vmaxpu=1.2 model=1
New Load.motor_load_p6ulv333_2 conn=wye bus1=p6ulv332.2 kV=0.12 kW=1.0543149895561377 kvar=0.21086299791122753 Phases=1 Vminpu=0.0 Vmaxpu=1.2 model=1
New Load.motor_load_p6ulv334_1 conn=wye bus1=p6ulv334.1 kV=0.12 kW=1.0900304754198018 kvar=0.21800609508396038 Phases=1 Vminpu=0.0 Vmaxpu=1.2 model=1
New Load.motor_load_p6ulv334_2 conn=wye bus1=p6ulv334.2 kV=0.12 kW=1.2096418992005686 kvar=0.24192837984011373 Phases=1 Vminpu=0.0 Vmaxpu=1.2 model=1
New Load.motor_load_p6ulv335_1 conn=wye bus1=p6ulv335.1 kV=0.12 kW=1.157132673456621 kvar=0.2314265346913242 Phases=1 Vminpu=0.0 Vmaxpu=1.2 model=1
New Load.motor_load_p6ulv338_1 conn=wye bus1=p6ulv338.1 kV=0.12 kW=1.1712894303974877 kvar=0.23425788607949755 Phases=1 Vminpu=0.0 Vmaxpu=1.2 model=1
New Load.motor_load_p6ulv338_2 conn=wye bus1=p6ulv338.2 kV=0.12 kW=1.2074762190132313 kvar=0.24149524380264628 Phases=1 Vminpu=0.0 Vmaxpu=1.2 model=1
New Load.motor_load_p6ulv339_2 conn=wye bus1=p6ulv339.2 kV=0.12 kW=1.109895905223788 kvar=0.2219791810447576 Phases=1 Vminpu=0.0 Vmaxpu=1.2 model=1
New Load.motor_load_p6ulv341_1 conn=wye bus1=p6ulv341.1 kV=0.12 kW=1.259542889641823 kvar=0.25190857792836463 Phases=1 Vminpu=0.0 Vmaxpu=1.2 model=1
New Load.motor_load_p6ulv346_1 conn=wye bus1=p6ulv345.1 kV=0.12 kW=1.2286245073460187 kvar=0.24572490146920375 Phases=1 Vminpu=0.0 Vmaxpu=1.2 model=1
New Load.motor_load_p6ulv347_1 conn=wye bus1=p6ulv347.1 kV=0.12 kW=1.2379405834394348 kvar=0.24758811668788697 Phases=1 Vminpu=0.0 Vmaxpu=1.2 model=1
New Load.motor_load_p6ulv350_1 conn=wye bus1=p6ulv350.1 kV=0.12 kW=1.1190397956967386 kvar=0.22380795913934773 Phases=1 Vminpu=0.0 Vmaxpu=1.2 model=1
New Load.motor_load_p6ulv352_2 conn=wye bus1=p6ulv352.2 kV=0.12 kW=1.2110437595443782 kvar=0.24220875190887564 Phases=1 Vminpu=0.0 Vmaxpu=1.2 model=1
New Load.motor_load_p6ulv353_1 conn=wye bus1=p6ulv353.1 kV=0.12 kW=1.2326065326610371 kvar=0.24652130653220744 Phases=1 Vminpu=0.0 Vmaxpu=1.2 model=1
New Load.motor_load_p6ulv353_2 conn=wye bus1=p6ulv353.2 kV=0.12 kW=1.1703057848660157 kvar=0.23406115697320315 Phases=1 Vminpu=0.0 Vmaxpu=1.2 model=1
New Load.motor_load_p6ulv355_1 conn=wye bus1=p6ulv355.1 kV=0.12 kW=1.1823880652192265 kvar=0.2364776130438453 Phases=1 Vminpu=0.0 Vmaxpu=1.2 model=1
New Load.motor_load_p6ulv356_1 conn=wye bus1=p6ulv356.1 kV=0.12 kW=1.20565059714801 kvar=0.24113011942960202 Phases=1 Vminpu=0.0 Vmaxpu=1.2 model=1
New Load.motor_load_p6ulv356_2 conn=wye bus1=p6ulv356.2 kV=0.12 kW=1.0805324242298908 kvar=0.21610648484597816 Phases=1 Vminpu=0.0 Vmaxpu=1.2 model=1
New Load.motor_load_p6ulv363_2 conn=wye bus1=p6ulv363.2 kV=0.12 kW=1.2450711210210603 kvar=0.24901422420421207 Phases=1 Vminpu=0.0 Vmaxpu=1.2 model=1
New Load.motor_load_p6ulv364_2 conn=wye bus1=p6ulv364.2 kV=0.12 kW=1.0530190239470285 kvar=0.2106038047894057 Phases=1 Vminpu=0.0 Vmaxpu=1.2 model=1
New Load.motor_load_p6ulv366_2 conn=wye bus1=p6ulv366.2 kV=0.12 kW=1.2497672721987851 kvar=0.24995345443975703 Phases=1 Vminpu=0.0 Vmaxpu=1.2 model=1
New Load.motor_load_p6ulv371_1 conn=wye bus1=p6ulv371.1 kV=0.12 kW=1.117414253534709 kvar=0.2234828507069418 Phases=1 Vminpu=0.0 Vmaxpu=1.2 model=1
New Load.motor_load_p6ulv373_1 conn=wye bus1=p6ulv373.1 kV=0.12 kW=1.0863847072658959 kvar=0.2172769414531792 Phases=1 Vminpu=0.0 Vmaxpu=1.2 model=1
New Load.motor_load_p6ulv373_2 conn=wye bus1=p6ulv373.2 kV=0.12 kW=1.1934413811816162 kvar=0.23868827623632327 Phases=1 Vminpu=0.0 Vmaxpu=1.2 model=1
New Load.motor_load_p6ulv374_1 conn=wye bus1=p6ulv374.1 kV=0.12 kW=1.1036348796528341 kvar=0.22072697593056684 Phases=1 Vminpu=0.0 Vmaxpu=1.2 model=1
New Load.motor_load_p6ulv377_1 conn=wye bus1=p6ulv377.1 kV=0.12 kW=1.2604013493942552 kvar=0.25208026987885107 Phases=1 Vminpu=0.0 Vmaxpu=1.2 model=1
New Load.motor_load_p6ulv378_2 conn=wye bus1=p6ulv378.2 kV=0.12 kW=1.1137452400010293 kvar=0.22274904800020587 Phases=1 Vminpu=0.0 Vmaxpu=1.2 model=1
New Load.motor_load_p6ulv379_1 conn=wye bus1=p6ulv379.1 kV=0.12 kW=1.2180586364970576 kvar=0.24361172729941152 Phases=1 Vminpu=0.0 Vmaxpu=1.2 model=1
New Load.motor_load_p6ulv380_1 conn=wye bus1=p6ulv380.1 kV=0.12 kW=1.2226302840697745 kvar=0.2445260568139549 Phases=1 Vminpu=0.0 Vmaxpu=1.2 model=1
New Load.motor_load_p6ulv381_1 conn=wye bus1=p6ulv381.1 kV=0.12 kW=1.1330216827022719 kvar=0.2266043365404544 Phases=1 Vminpu=0.0 Vmaxpu=1.2 model=1
New Load.motor_load_p6ulv382_1 conn=wye bus1=p6ulv382.1 kV=0.12 kW=1.2277730656863555 kvar=0.24555461313727112 Phases=1 Vminpu=0.0 Vmaxpu=1.2 model=1
New Load.motor_load_p6ulv382_2 conn=wye bus1=p6ulv382.2 kV=0.12 kW=1.0714907890565037 kvar=0.21429815781130077 Phases=1 Vminpu=0.0 Vmaxpu=1.2 model=1
New Load.motor_load_p6ulv384_1 conn=wye bus1=p6ulv384.1 kV=0.12 kW=1.0565048409718913 kvar=0.21130096819437827 Phases=1 Vminpu=0.0 Vmaxpu=1.2 model=1
New Load.motor_load_p6ulv385_2 conn=wye bus1=p6ulv385.2 kV=0.12 kW=1.0700775964330513 kvar=0.21401551928661028 Phases=1 Vminpu=0.0 Vmaxpu=1.2 model=1
New Load.motor_load_p6ulv386_2 conn=wye bus1=p6ulv386.2 kV=0.12 kW=1.1759836128208214 kvar=0.2351967225641643 Phases=1 Vminpu=0.0 Vmaxpu=1.2 model=1
New Load.motor_load_p6ulv387_2 conn=wye bus1=p6ulv387.2 kV=0.12 kW=1.1115669545478588 kvar=0.22231339090957178 Phases=1 Vminpu=0.0 Vmaxpu=1.2 model=1
New Load.motor_load_p6ulv388_2 conn=wye bus1=p6ulv388.2 kV=0.12 kW=1.0881951834161978 kvar=0.21763903668323958 Phases=1 Vminpu=0.0 Vmaxpu=1.2 model=1
New Load.motor_load_p6ulv394_1 conn=wye bus1=p6ulv394.1 kV=0.12 kW=1.1104413123087264 kvar=0.2220882624617453 Phases=1 Vminpu=0.0 Vmaxpu=1.2 model=1
New Load.motor_load_p6ulv394_2 conn=wye bus1=p6ulv394.2 kV=0.12 kW=1.2106053510136405 kvar=0.2421210702027281 Phases=1 Vminpu=0.0 Vmaxpu=1.2 model=1
New Load.motor_load_p6ulv397_2 conn=wye bus1=p6ulv397.2 kV=0.12 kW=1.080181218096128 kvar=0.21603624361922563 Phases=1 Vminpu=0.0 Vmaxpu=1.2 model=1
New Load.motor_load_p6ulv398_2 conn=wye bus1=p6ulv398.2 kV=0.12 kW=1.2386205031560098 kvar=0.24772410063120198 Phases=1 Vminpu=0.0 Vmaxpu=1.2 model=1
New Load.motor_load_p6ulv399_2 conn=wye bus1=p6ulv399.2 kV=0.12 kW=1.0972386097979068 kvar=0.21944772195958137 Phases=1 Vminpu=0.0 Vmaxpu=1.2 model=1
New Load.motor_load_p6ulv401_1 conn=wye bus1=p6ulv401.1 kV=0.12 kW=1.1121415361911793 kvar=0.22242830723823587 Phases=1 Vminpu=0.0 Vmaxpu=1.2 model=1
New Load.motor_load_p6ulv401_2 conn=wye bus1=p6ulv401.2 kV=0.12 kW=1.2195943577685695 kvar=0.24391887155371392 Phases=1 Vminpu=0.0 Vmaxpu=1.2 model=1
New Load.motor_load_p6ulv402_2 conn=wye bus1=p6ulv402.2 kV=0.12 kW=1.1253799944084173 kvar=0.22507599888168348 Phases=1 Vminpu=0.0 Vmaxpu=1.2 model=1
New Load.motor_load_p6ulv403_1 conn=wye bus1=p6ulv403.1 kV=0.12 kW=1.1493315078231967 kvar=0.22986630156463936 Phases=1 Vminpu=0.0 Vmaxpu=1.2 model=1
New Load.motor_load_p6ulv405_1 conn=wye bus1=p6ulv405.1 kV=0.12 kW=1.1394684518015643 kvar=0.22789369036031287 Phases=1 Vminpu=0.0 Vmaxpu=1.2 model=1
New Load.motor_load_p6ulv408_2 conn=wye bus1=p6ulv408.2 kV=0.12 kW=1.1431039138386396 kvar=0.22862078276772793 Phases=1 Vminpu=0.0 Vmaxpu=1.2 model=1
New Load.motor_load_p6ulv409_2 conn=wye bus1=p6ulv409.2 kV=0.12 kW=1.0923884226958105 kvar=0.2184776845391621 Phases=1 Vminpu=0.0 Vmaxpu=1.2 model=1
New Load.motor_load_p6ulv410_1 conn=wye bus1=p6ulv410.1 kV=0.12 kW=1.1795828460554665 kvar=0.2359165692110933 Phases=1 Vminpu=0.0 Vmaxpu=1.2 model=1
New Load.motor_load_p6ulv412_2 conn=wye bus1=p6ulv412.2 kV=0.12 kW=1.0769285684353223 kvar=0.21538571368706447 Phases=1 Vminpu=0.0 Vmaxpu=1.2 model=1
New Load.motor_load_p6ulv416_1 conn=wye bus1=p6ulv416.1 kV=0.12 kW=1.1440251700777189 kvar=0.22880503401554378 Phases=1 Vminpu=0.0 Vmaxpu=1.2 model=1
New Load.motor_load_p6ulv417_2 conn=wye bus1=p6ulv417.2 kV=0.12 kW=1.166968111929567 kvar=0.2333936223859134 Phases=1 Vminpu=0.0 Vmaxpu=1.2 model=1
New Load.motor_load_p6ulv420_1 conn=wye bus1=p6ulv420.1 kV=0.12 kW=1.2227073543137248 kvar=0.24454147086274497 Phases=1 Vminpu=0.0 Vmaxpu=1.2 model=1
New Load.motor_load_p6ulv420_2 conn=wye bus1=p6ulv420.2 kV=0.12 kW=1.2216986632325895 kvar=0.2443397326465179 Phases=1 Vminpu=0.0 Vmaxpu=1.2 model=1
New Load.motor_load_p6ulv422_1 conn=wye bus1=p6ulv422.1 kV=0.12 kW=1.2527072550447356 kvar=0.25054145100894715 Phases=1 Vminpu=0.0 Vmaxpu=1.2 model=1
New Load.motor_load_p6ulv422_2 conn=wye bus1=p6ulv422.2 kV=0.12 kW=1.0699905552220836 kvar=0.21399811104441674 Phases=1 Vminpu=0.0 Vmaxpu=1.2 model=1
New Load.motor_load_p6ulv424_2 conn=wye bus1=p6ulv424.2 kV=0.12 kW=1.1782587735644707 kvar=0.23565175471289415 Phases=1 Vminpu=0.0 Vmaxpu=1.2 model=1
New Load.motor_load_p6ulv429_2 conn=wye bus1=p6ulv429.2 kV=0.12 kW=1.1276014437951172 kvar=0.22552028875902344 Phases=1 Vminpu=0.0 Vmaxpu=1.2 model=1
New Load.motor_load_p6ulv431_2 conn=wye bus1=p6ulv431.2 kV=0.12 kW=1.219507471826269 kvar=0.24390149436525382 Phases=1 Vminpu=0.0 Vmaxpu=1.2 model=1
New Load.motor_load_p6ulv437_1 conn=wye bus1=p6ulv437.1 kV=0.12 kW=1.1318632298142848 kvar=0.22637264596285697 Phases=1 Vminpu=0.0 Vmaxpu=1.2 model=1
New Load.motor_load_p6ulv438_2 conn=wye bus1=p6ulv438.2 kV=0.12 kW=1.1067777194512958 kvar=0.22135554389025916 Phases=1 Vminpu=0.0 Vmaxpu=1.2 model=1
New Load.motor_load_p6ulv440_1 conn=wye bus1=p6ulv440.1 kV=0.12 kW=1.1513253436626416 kvar=0.23026506873252833 Phases=1 Vminpu=0.0 Vmaxpu=1.2 model=1
New Load.motor_load_p6ulv442_1 conn=wye bus1=p6ulv442.1 kV=0.12 kW=1.2312641180927546 kvar=0.24625282361855094 Phases=1 Vminpu=0.0 Vmaxpu=1.2 model=1
New Load.motor_load_p6ulv442_2 conn=wye bus1=p6ulv442.2 kV=0.12 kW=1.2185098490802129 kvar=0.24370196981604259 Phases=1 Vminpu=0.0 Vmaxpu=1.2 model=1
New Load.motor_load_p6ulv443_1 conn=wye bus1=p6ulv443.1 kV=0.12 kW=1.2389643147162233 kvar=0.24779286294324465 Phases=1 Vminpu=0.0 Vmaxpu=1.2 model=1
New Load.motor_load_p6ulv446_2 conn=wye bus1=p6ulv446.2 kV=0.12 kW=1.171575462603218 kvar=0.23431509252064361 Phases=1 Vminpu=0.0 Vmaxpu=1.2 model=1
New Load.motor_load_p6ulv449_1 conn=wye bus1=p6ulv449.1 kV=0.12 kW=1.2039580156090919 kvar=0.24079160312181838 Phases=1 Vminpu=0.0 Vmaxpu=1.2 model=1
New Load.motor_load_p6ulv450_1 conn=wye bus1=p6ulv450.1 kV=0.12 kW=1.1810978520560835 kvar=0.23621957041121672 Phases=1 Vminpu=0.0 Vmaxpu=1.2 model=1
New Load.motor_load_p6ulv451_2 conn=wye bus1=p6ulv451.2 kV=0.12 kW=1.2191134656800597 kvar=0.24382269313601196 Phases=1 Vminpu=0.0 Vmaxpu=1.2 model=1
New Load.motor_load_p6ulv452_2 conn=wye bus1=p6ulv452.2 kV=0.12 kW=1.1802018152751368 kvar=0.23604036305502737 Phases=1 Vminpu=0.0 Vmaxpu=1.2 model=1
New Load.motor_load_p6ulv454_2 conn=wye bus1=p6ulv454.2 kV=0.12 kW=1.1259554769256754 kvar=0.2251910953851351 Phases=1 Vminpu=0.0 Vmaxpu=1.2 model=1
New Load.motor_load_p6ulv456_2 conn=wye bus1=p6ulv456.2 kV=0.12 kW=1.1021200992002265 kvar=0.2204240198400453 Phases=1 Vminpu=0.0 Vmaxpu=1.2 model=1
New Load.motor_load_p6ulv457_1 conn=wye bus1=p6ulv457.1 kV=0.12 kW=1.1253104832847867 kvar=0.22506209665695734 Phases=1 Vminpu=0.0 Vmaxpu=1.2 model=1
New Load.motor_load_p6ulv460_1 conn=wye bus1=p6ulv460.1 kV=0.12 kW=1.0853735937432893 kvar=0.21707471874865789 Phases=1 Vminpu=0.0 Vmaxpu=1.2 model=1
New Load.motor_load_p6ulv461_1 conn=wye bus1=p6ulv461.1 kV=0.12 kW=1.1687802518897394 kvar=0.2337560503779479 Phases=1 Vminpu=0.0 Vmaxpu=1.2 model=1
New Load.motor_load_p6ulv1588_1 conn=wye bus1=p6ulv1588.1 kV=0.12 kW=1.1477044601568345 kvar=0.2295408920313669 Phases=1 Vminpu=0.0 Vmaxpu=1.2 model=1
New Load.motor_load_p6ulv1588_2 conn=wye bus1=p6ulv1588.2 kV=0.12 kW=1.1588721859177538 kvar=0.23177443718355076 Phases=1 Vminpu=0.0 Vmaxpu=1.2 model=1
New Load.motor_load_p6ulv1590_2 conn=wye bus1=p6ulv1590.2 kV=0.12 kW=1.181741740720528 kvar=0.2363483481441056 Phases=1 Vminpu=0.0 Vmaxpu=1.2 model=1
New Load.motor_load_p6ulv1591_1 conn=wye bus1=p6ulv1591.1 kV=0.12 kW=1.1160986894577327 kvar=0.22321973789154656 Phases=1 Vminpu=0.0 Vmaxpu=1.2 model=1
New Load.motor_load_p6ulv1591_2 conn=wye bus1=p6ulv1591.2 kV=0.12 kW=1.241045326666058 kvar=0.2482090653332116 Phases=1 Vminpu=0.0 Vmaxpu=1.2 model=1
New Load.motor_load_p6ulv1592_2 conn=wye bus1=p6ulv1592.2 kV=0.12 kW=1.1730395640795979 kvar=0.23460791281591958 Phases=1 Vminpu=0.0 Vmaxpu=1.2 model=1
New Load.motor_load_p6ulv1594_1 conn=wye bus1=p6ulv1594.1 kV=0.12 kW=1.094751760503752 kvar=0.21895035210075042 Phases=1 Vminpu=0.0 Vmaxpu=1.2 model=1
New Load.motor_load_p6ulv1599_2 conn=wye bus1=p6ulv1599.2 kV=0.12 kW=1.1022393984796204 kvar=0.22044787969592408 Phases=1 Vminpu=0.0 Vmaxpu=1.2 model=1
New Load.motor_load_p6ulv1600_2 conn=wye bus1=p6ulv1600.2 kV=0.12 kW=1.0675810888465995 kvar=0.21351621776931992 Phases=1 Vminpu=0.0 Vmaxpu=1.2 model=1
New Load.motor_load_p6ulv2247_1 conn=wye bus1=p6ulv2247.1 kV=0.12 kW=1.0749734462246021 kvar=0.21499468924492043 Phases=1 Vminpu=0.0 Vmaxpu=1.2 model=1
New Load.motor_load_p6ulv2248_2 conn=wye bus1=p6ulv2248.2 kV=0.12 kW=1.1626825066605142 kvar=0.23253650133210285 Phases=1 Vminpu=0.0 Vmaxpu=1.2 model=1
New Load.motor_load_p6ulv2250_1 conn=wye bus1=p6ulv2250.1 kV=0.12 kW=1.1358610056586498 kvar=0.22717220113172998 Phases=1 Vminpu=0.0 Vmaxpu=1.2 model=1
New Load.motor_load_p6ulv2250_2 conn=wye bus1=p6ulv2250.2 kV=0.12 kW=1.0847440688405687 kvar=0.21694881376811376 Phases=1 Vminpu=0.0 Vmaxpu=1.2 model=1
New Load.motor_load_p6ulv2252_1 conn=wye bus1=p6ulv2252.1 kV=0.12 kW=1.1563221555212435 kvar=0.2312644311042487 Phases=1 Vminpu=0.0 Vmaxpu=1.2 model=1
New Load.motor_load_p6ulv2255_2 conn=wye bus1=p6ulv2255.2 kV=0.12 kW=1.1726369984558553 kvar=0.2345273996911711 Phases=1 Vminpu=0.0 Vmaxpu=1.2 model=1
New Load.motor_load_p6ulv2258_1 conn=wye bus1=p6ulv2258.1 kV=0.12 kW=1.074136044786235 kvar=0.214827208957247 Phases=1 Vminpu=0.0 Vmaxpu=1.2 model=1
New Load.motor_load_p6ulv2259_2 conn=wye bus1=p6ulv2259.2 kV=0.12 kW=1.0841766990733614 kvar=0.2168353398146723 Phases=1 Vminpu=0.0 Vmaxpu=1.2 model=1
New Load.motor_load_p6ulv2261_1 conn=wye bus1=p6ulv2261.1 kV=0.12 kW=1.1211027703098604 kvar=0.22422055406197208 Phases=1 Vminpu=0.0 Vmaxpu=1.2 model=1
New Load.motor_load_p6ulv2261_2 conn=wye bus1=p6ulv2261.2 kV=0.12 kW=1.1183472177793279 kvar=0.2236694435558656 Phases=1 Vminpu=0.0 Vmaxpu=1.2 model=1
New Load.motor_load_p6ulv2262_2 conn=wye bus1=p6ulv2262.2 kV=0.12 kW=1.134225850892085 kvar=0.22684517017841702 Phases=1 Vminpu=0.0 Vmaxpu=1.2 model=1
New Load.motor_load_p6ulv2263_1 conn=wye bus1=p6ulv2263.1 kV=0.12 kW=1.2092145164101697 kvar=0.24184290328203395 Phases=1 Vminpu=0.0 Vmaxpu=1.2 model=1
New Load.motor_load_p6ulv2264_2 conn=wye bus1=p6ulv2264.2 kV=0.12 kW=1.0676071339333049 kvar=0.21352142678666097 Phases=1 Vminpu=0.0 Vmaxpu=1.2 model=1
New Load.motor_load_p6ulv2265_1 conn=wye bus1=p6ulv2265.1 kV=0.12 kW=1.1506778891912892 kvar=0.23013557783825786 Phases=1 Vminpu=0.0 Vmaxpu=1.2 model=1
New Load.motor_load_p6ulv2268_1 conn=wye bus1=p6ulv2268.1 kV=0.12 kW=1.1816548577573278 kvar=0.23633097155146557 Phases=1 Vminpu=0.0 Vmaxpu=1.2 model=1
New Load.motor_load_p6ulv2274_2 conn=wye bus1=p6ulv2274.2 kV=0.12 kW=1.1030553042962856 kvar=0.22061106085925714 Phases=1 Vminpu=0.0 Vmaxpu=1.2 model=1
New Load.motor_load_p6ulv2276_2 conn=wye bus1=p6ulv2276.2 kV=0.12 kW=1.1557394759250623 kvar=0.23114789518501247 Phases=1 Vminpu=0.0 Vmaxpu=1.2 model=1
New Load.motor_load_p6ulv2277_1 conn=wye bus1=p6ulv2277.1 kV=0.12 kW=1.1399185880449236 kvar=0.22798371760898473 Phases=1 Vminpu=0.0 Vmaxpu=1.2 model=1
New Load.motor_load_p6ulv2278_2 conn=wye bus1=p6ulv2278.2 kV=0.12 kW=1.2053638599146925 kvar=0.24107277198293853 Phases=1 Vminpu=0.0 Vmaxpu=1.2 model=1
New Load.motor_load_p6ulv2282_1 conn=wye bus1=p6ulv2282.1 kV=0.12 kW=1.1602438896739233 kvar=0.23204877793478468 Phases=1 Vminpu=0.0 Vmaxpu=1.2 model=1
New Load.motor_load_p6ulv2283_2 conn=wye bus1=p6ulv2283.2 kV=0.12 kW=1.0930983342955851 kvar=0.21861966685911705 Phases=1 Vminpu=0.0 Vmaxpu=1.2 model=1
New Load.motor_load_p6ulv2284_1 conn=wye bus1=p6ulv2284.1 kV=0.12 kW=1.1059130229703427 kvar=0.22118260459406855 Phases=1 Vminpu=0.0 Vmaxpu=1.2 model=1
New Load.motor_load_p6ulv2285_1 conn=wye bus1=p6ulv2285.1 kV=0.12 kW=1.137903089516283 kvar=0.2275806179032566 Phases=1 Vminpu=0.0 Vmaxpu=1.2 model=1
New Load.motor_load_p6ulv2286_2 conn=wye bus1=p6ulv2286.2 kV=0.12 kW=1.2210558712945552 kvar=0.24421117425891103 Phases=1 Vminpu=0.0 Vmaxpu=1.2 model=1
New Load.motor_load_p6ulv2287_1 conn=wye bus1=p6ulv2287.1 kV=0.12 kW=1.0558760818993285 kvar=0.2111752163798657 Phases=1 Vminpu=0.0 Vmaxpu=1.2 model=1
New Load.motor_load_p6ulv2288_1 conn=wye bus1=p6ulv2288.1 kV=0.12 kW=1.0574658246249684 kvar=0.2114931649249937 Phases=1 Vminpu=0.0 Vmaxpu=1.2 model=1
New Load.motor_load_p6ulv2288_2 conn=wye bus1=p6ulv2288.2 kV=0.12 kW=1.2213278246978931 kvar=0.24426556493957863 Phases=1 Vminpu=0.0 Vmaxpu=1.2 model=1
New Load.motor_load_p6ulv2289_1 conn=wye bus1=p6ulv2289.1 kV=0.12 kW=1.1277761368592276 kvar=0.22555522737184552 Phases=1 Vminpu=0.0 Vmaxpu=1.2 model=1
New Load.motor_load_p6ulv2290_2 conn=wye bus1=p6ulv2290.2 kV=0.12 kW=1.245438935829334 kvar=0.24908778716586683 Phases=1 Vminpu=0.0 Vmaxpu=1.2 model=1
New Load.motor_load_p6ulv2291_1 conn=wye bus1=p6ulv2291.1 kV=0.12 kW=1.2378156534611107 kvar=0.24756313069222213 Phases=1 Vminpu=0.0 Vmaxpu=1.2 model=1
New Load.motor_load_p6ulv2292_2 conn=wye bus1=p6ulv2292.2 kV=0.12 kW=1.1563911117718748 kvar=0.23127822235437498 Phases=1 Vminpu=0.0 Vmaxpu=1.2 model=1
New Load.motor_load_p6ulv2293_1 conn=wye bus1=p6ulv2293.1 kV=0.12 kW=1.0820240767224083 kvar=0.21640481534448167 Phases=1 Vminpu=0.0 Vmaxpu=1.2 model=1
New Load.motor_load_p6ulv2296_2 conn=wye bus1=p6ulv2296.2 kV=0.12 kW=1.0791101416799278 kvar=0.21582202833598557 Phases=1 Vminpu=0.0 Vmaxpu=1.2 model=1
New Load.motor_load_p6ulv2300_2 conn=wye bus1=p6ulv2300.2 kV=0.12 kW=1.0970392170502798 kvar=0.21940784341005598 Phases=1 Vminpu=0.0 Vmaxpu=1.2 model=1
New Load.motor_load_p6ulv2301_2 conn=wye bus1=p6ulv2301.2 kV=0.12 kW=1.1474934626139142 kvar=0.22949869252278285 Phases=1 Vminpu=0.0 Vmaxpu=1.2 model=1
New Load.motor_load_p6ulv2302_2 conn=wye bus1=p6ulv2302.2 kV=0.12 kW=1.1760517439603968 kvar=0.23521034879207936 Phases=1 Vminpu=0.0 Vmaxpu=1.2 model=1
New Load.motor_load_p6ulv2305_2 conn=wye bus1=p6ulv2305.2 kV=0.12 kW=1.1806008842462632 kvar=0.23612017684925266 Phases=1 Vminpu=0.0 Vmaxpu=1.2 model=1
New Load.motor_load_p6ulv2317_2 conn=wye bus1=p6ulv2317.2 kV=0.12 kW=1.2604557991231784 kvar=0.2520911598246357 Phases=1 Vminpu=0.0 Vmaxpu=1.2 model=1
New Load.motor_load_p6ulv2318_2 conn=wye bus1=p6ulv2318.2 kV=0.12 kW=1.1816855322966673 kvar=0.23633710645933348 Phases=1 Vminpu=0.0 Vmaxpu=1.2 model=1
New Load.motor_load_p6ulv2320_2 conn=wye bus1=p6ulv2320.2 kV=0.12 kW=1.248233362578115 kvar=0.249646672515623 Phases=1 Vminpu=0.0 Vmaxpu=1.2 model=1
New Load.motor_load_p6ulv2324_2 conn=wye bus1=p6ulv2324.2 kV=0.12 kW=1.0928992602769831 kvar=0.21857985205539665 Phases=1 Vminpu=0.0 Vmaxpu=1.2 model=1
New Load.motor_load_p6ulv2325_1 conn=wye bus1=p6ulv2325.1 kV=0.12 kW=1.1438886918516382 kvar=0.22877773837032767 Phases=1 Vminpu=0.0 Vmaxpu=1.2 model=1
New Load.motor_load_p6ulv2326_1 conn=wye bus1=p6ulv2326.1 kV=0.12 kW=1.1600597261747085 kvar=0.23201194523494173 Phases=1 Vminpu=0.0 Vmaxpu=1.2 model=1
New Load.motor_load_p6ulv2326_2 conn=wye bus1=p6ulv2326.2 kV=0.12 kW=1.141101022288107 kvar=0.22822020445762142 Phases=1 Vminpu=0.0 Vmaxpu=1.2 model=1
New Load.motor_load_p6ulv2395_2 conn=wye bus1=p6ulv2395.2 kV=0.12 kW=1.2582176351458543 kvar=0.25164352702917087 Phases=1 Vminpu=0.0 Vmaxpu=1.2 model=1
New Load.motor_load_p6ulv2432 conn=wye bus1=p6ulv2432.1.2.3 kV=0.48 kW=1.0997630187173904 kvar=0.21995260374347808 Phases=3 Vminpu=0.0 Vmaxpu=1.2 model=1
New Load.motor_load_p6ulv2437_2 conn=wye bus1=p6ulv2437.2 kV=0.12 kW=1.0730084359923502 kvar=0.21460168719847006 Phases=1 Vminpu=0.0 Vmaxpu=1.2 model=1
New Load.motor_load_p6ulv2438_1 conn=wye bus1=p6ulv2438.1 kV=0.12 kW=1.1664344201056533 kvar=0.23328688402113068 Phases=1 Vminpu=0.0 Vmaxpu=1.2 model=1
New Load.motor_load_p6ulv2442_2 conn=wye bus1=p6ulv2442.2 kV=0.12 kW=1.1368235206835904 kvar=0.22736470413671808 Phases=1 Vminpu=0.0 Vmaxpu=1.2 model=1
New Load.motor_load_p6ulv2460_2 conn=wye bus1=p6ulv2460.2 kV=0.12 kW=1.2546684314467107 kvar=0.25093368628934215 Phases=1 Vminpu=0.0 Vmaxpu=1.2 model=1
New Load.motor_load_p6ulv2462_1 conn=wye bus1=p6ulv2462.1 kV=0.12 kW=1.117786223853837 kvar=0.2235572447707674 Phases=1 Vminpu=0.0 Vmaxpu=1.2 model=1
New Load.motor_load_p6ulv2465_1 conn=wye bus1=p6ulv2465.1 kV=0.12 kW=1.2602480601491561 kvar=0.2520496120298312 Phases=1 Vminpu=0.0 Vmaxpu=1.2 model=1
New Load.motor_load_p6ulv2466_1 conn=wye bus1=p6ulv2466.1 kV=0.12 kW=1.191806697990235 kvar=0.23836133959804703 Phases=1 Vminpu=0.0 Vmaxpu=1.2 model=1
New Load.motor_load_p6ulv2471_1 conn=wye bus1=p6ulv2471.1 kV=0.12 kW=1.239329705591053 kvar=0.24786594111821061 Phases=1 Vminpu=0.0 Vmaxpu=1.2 model=1
New Load.motor_load_p6ulv2472_2 conn=wye bus1=p6ulv2472.2 kV=0.12 kW=1.150541072581659 kvar=0.2301082145163318 Phases=1 Vminpu=0.0 Vmaxpu=1.2 model=1
New Load.motor_load_p6ulv2475_2 conn=wye bus1=p6ulv2475.2 kV=0.12 kW=1.0777716185355455 kvar=0.2155543237071091 Phases=1 Vminpu=0.0 Vmaxpu=1.2 model=1
New Load.motor_load_p6ulv2476_1 conn=wye bus1=p6ulv2476.1 kV=0.12 kW=1.0606987458733594 kvar=0.2121397491746719 Phases=1 Vminpu=0.0 Vmaxpu=1.2 model=1
New Load.motor_load_p6ulv2476_2 conn=wye bus1=p6ulv2476.2 kV=0.12 kW=1.191583342833989 kvar=0.2383166685667978 Phases=1 Vminpu=0.0 Vmaxpu=1.2 model=1
New Load.motor_load_p6ulv2478_2 conn=wye bus1=p6ulv2478.2 kV=0.12 kW=1.1684824289073386 kvar=0.23369648578146773 Phases=1 Vminpu=0.0 Vmaxpu=1.2 model=1
New Load.motor_load_p6ulv2480_1 conn=wye bus1=p6ulv2480.1 kV=0.12 kW=1.0651931314962482 kvar=0.21303862629924963 Phases=1 Vminpu=0.0 Vmaxpu=1.2 model=1
New Load.motor_load_p6ulv2481_2 conn=wye bus1=p6ulv2481.2 kV=0.12 kW=1.104654655632134 kvar=0.2209309311264268 Phases=1 Vminpu=0.0 Vmaxpu=1.2 model=1
New Load.motor_load_p6ulv2482_1 conn=wye bus1=p6ulv2482.1 kV=0.12 kW=1.0736362064655203 kvar=0.21472724129310405 Phases=1 Vminpu=0.0 Vmaxpu=1.2 model=1