New Generator.pv_load_p6ulv245_2 conn=wye bus1=p6ulv245.2 kV=0.12 model=7 kW=0.2915605549485622 kvar=-0.0 Phases=1
New Generator.pv_load_p6ulv249_2 conn=wye bus1=p6ulv249.2 kV=0.12 model=7 kW=0.2660116975443831 kvar=-0.0 Phases=1
New Generator.pv_load_p6ulv254_1 conn=wye bus1=p6ulv254.1 kV=0.12 model=7 kW=0.2043923621073979 kvar=-0.0 Phases=1
New Generator.pv_load_p6ulv254_2 conn=wye bus1=p6ulv254.2 kV=0.12 model=7 kW=0.2043923621073979 kvar=-0.0 Phases=1
New Generator.pv_load_p6ulv264_2 conn=wye bus1=p6ulv264.2 kV=0.12 model=7 kW=0.3306352780373067 kvar=-0.0 Phases=1
New Generator.pv_load_p6ulv266_1 conn=wye bus1=p6ulv266.1 kV=0.12 model=7 kW=0.3065892945980793 kvar=-0.0 Phases=1
New Generator.pv_load_p6ulv267_1 conn=wye bus1=p6ulv267.1 kV=0.12 model=7 kW=1.4803458842170865 kvar=-0.0 Phases=1
New Generator.pv_load_p6ulv268_2 conn=wye bus1=p6ulv268.2 kV=0.12 model=7 kW=0.9438138672334653 kvar=-0.0 Phases=1
New Generator.pv_load_p6ulv271_1 conn=wye bus1=p6ulv271.1 kV=0.12 model=7 kW=0.12924851357241576 kvar=-0.0 Phases=1
New Generator.pv_load_p6ulv271_2 conn=wye bus1=p6ulv271.2 kV=0.12 model=7 kW=0.12924851357241576 kvar=-0.0 Phases=1
New Generator.pv_load_p6ulv272_1 conn=wye bus1=p6ulv272.1 kV=0.12 model=7 kW=0.19838086624759108 kvar=-0.0 Phases=1
New Generator.pv_load_p6ulv276_2 conn=wye bus1=p6ulv276.2 kV=0.12 model=7 kW=0.19687799228263936 kvar=-0.0 Phases=1
New Generator.pv_load_p6ulv282_1 conn=wye bus1=p6ulv282.1 kV=0.12 model=7 kW=0.3802316217546783 kvar=-0.0 Phases=1
New Generator.pv_load_p6ulv282_2 conn=wye bus1=p6ulv282.2 kV=0.12 model=7 kW=0.3802316217546783 kvar=-0.0 Phases=1
New Generator.pv_load_p6ulv283_1 conn=wye bus1=p6ulv283.1 kV=0.12 model=7 kW=0.15780326919389484 kvar=-0.0 Phases=1
New Generator.pv_load_p6ulv286_2 conn=wye bus1=p6ulv286.2 kV=0.12 model=7 kW=0.27352606736914165 kvar=-0.0 Phases=1
New Generator.pv_load_p6ulv287_1 conn=wye bus1=p6ulv287.1 kV=0.12 model=7 kW=0.26150307564952796 kvar=-0.0 Phases=1
New Generator.pv_load_p6ulv288_1 conn=wye bus1=p6ulv288.1 kV=0.12 model=7 kW=0.2344513442803971 kvar=-0.0 Phases=1
New Generator.pv_load_p6ulv288_2 conn=wye bus1=p6ulv288.2 kV=0.12 model=7 kW=0.2344513442803971 kvar=-0.0 Phases=1
New Generator.pv_load_p6ulv290_1 conn=wye bus1=p6ulv290.1 kV=0.12 model=7 kW=0.18485500056302565 kvar=-0.0 Phases=1
New Generator.pv_load_p6ulv291_2 conn=wye bus1=p6ulv291.2 kV=0.12 model=7 kW=0.3141036644228379 kvar=-0.0 Phases=1
New Generator.pv_load_p6ulv292_2 conn=wye bus1=p6ulv292.2 kV=0.12 model=7 kW=0.2675145715093348 kvar=-0.0 Phases=1
New Generator.pv_load_p6ulv293_1 conn=wye bus1=p6ulv293.1 kV=0.12 model=7 kW=0.25699445375467284 kvar=-0.0 Phases=1
New Generator.pv_load_p6ulv299_2 conn=wye bus1=p6ulv299.2 kV=0.12 model=7 kW=0.17583775677331534 kvar=-0.0 Phases=1
New Generator.pv_load_p6ulv300_1 conn=wye bus1=p6ulv300.1 kV=0.12 model=7 kW=0.20890098400225304 kvar=-0.0 Phases=1
New Generator.pv_load_p6ulv301_1 conn=wye bus1=p6ulv301.1 kV=0.12 model=7 kW=2.4527203682804943 kvar=-0.0 Phases=1
New Generator.pv_load_p6ulv302_1 conn=wye bus1=p6ulv302.1 kV=0.12 model=7 kW=0.3246237821774999 kvar=-0.0 Phases=1
New Generator.pv_load_p6ulv306_2 conn=wye bus1=p6ulv306.2 kV=0.12 model=7 kW=0.21791822779196332 kvar=-0.0 Phases=1
New Generator.pv_load_p6ulv310_2 conn=wye bus1=p6ulv310.2 kV=0.12 model=7 kW=0.2795375632289485 kvar=-0.0 Phases=1
New Generator.pv_load_p6ulv313_2 conn=wye bus1=p6ulv313.2 kV=0.12 model=7 kW=0.3306352780373067 kvar=-0.0 Phases=1
New Generator.pv_load_p6ulv314_1 conn=wye bus1=p6ulv314.1 kV=0.12 model=7 kW=0.22392972365177016 kvar=-0.0 Phases=1
New Generator.pv_load_p6ulv315_2 conn=wye bus1=p6ulv315.2 kV=0.12 model=7 kW=0.27352606736914165 kvar=-0.0 Phases=1
New Generator.pv_load_p6ulv320_1 conn=wye bus1=p6ulv320.1 kV=0.12 model=7 kW=0.1232368674252124 kvar=-0.0 Phases=1
New Generator.pv_load_p6ulv320_2 conn=wye bus1=p6ulv320.2 kV=0.12 model=7 kW=0.1232368674252124 kvar=-0.0 Phases=1
New Generator.pv_load_p6ulv323_1 conn=wye bus1=p6ulv323.1 kV=0.12 model=7 kW=0.11121372541820221 kvar=-0.0 Phases=1
New Generator.pv_load_p6ulv326_1 conn=wye bus1=p6ulv324.1 kV=0.12 model=7 kW=0.5094787827405255 kvar=-0.0 Phases=1
New Generator.pv_load_p6ulv328_2 conn=wye bus1=p6ulv328.2 kV=0.12 model=7 kW=0.24346858807010738 kvar=-0.0 Phases=1
New Generator.pv_load_p6ulv329_1 conn=wye bus1=p6ulv329.1 kV=0.12 model=7 kW=0.4448552022476019 kvar=-0.0 Phases=1
New Generator.pv_load_p6ulv329_2 conn=wye bus1=p6ulv329.2 kV=0.12 model=7 kW=0.4448552022476019 kvar=-0.0 Phases=1
New Generator.pv_load_p6ulv335_1 conn=wye bus1=p6ulv335.1 kV=0.12 model=7 kW=0.26901744547428647 kvar=-0.0 Phases=1
New Generator.pv_load_p6ulv339_1 conn=wye bus1=p6ulv339.1 kV=0.12 model=7 kW=0.14878602540418454 kvar=-0.0 Phases=1
New Generator.pv_load_p6ulv343_2 conn=wye bus1=p6ulv343.2 kV=0.12 model=7 kW=0.38624311761448504 kvar=-0.0 Phases=1
New Generator.pv_load_p6ulv344_1 conn=wye bus1=p6ulv344.1 kV=0.12 model=7 kW=0.3126007904578862 kvar=-0.0 Phases=1
New Generator.pv_load_p6ulv345_1 conn=wye bus1=p6ulv345.1 kV=0.12 model=7 kW=0.2449714620350591 kvar=-0.0 Phases=1
New Generator.pv_load_p6ulv345_2 conn=wye bus1=p6ulv345.2 kV=0.12 model=7 kW=0.2449714620350591 kvar=-0.0 Phases=1
New Generator.pv_load_p6ulv349_2 conn=wye bus1=p6ulv349.2 kV=0.12 model=7 kW=0.26300594961447965 kvar=-0.0 Phases=1
New Generator.pv_load_p6ulv351_2 conn=wye bus1=p6ulv351.2 kV=0.12 model=7 kW=1.8049666606466568 kvar=-0.0 Phases=1
New Generator.pv_load_p6ulv355_1 conn=wye bus1=p6ulv355.1 kV=0.12 model=7 kW=0.6026584714414966 kvar=-0.0 Phases=1
New Generator.pv_load_p6ulv356_1 conn=wye bus1=p6ulv356.1 kV=0.12 model=7 kW=1.3736403298315503 kvar=-0.0 Phases=1
New Generator.pv_load_p6ulv359_1 conn=wye bus1=p6ulv359.1 kV=0.12 model=7 kW=0.2043923621073979 kvar=-0.0 Phases=1
New Generator.pv_load_p6ulv364_1 conn=wye bus1=p6ulv364.1 kV=0.12 model=7 kW=0.16531763901865335 kvar=-0.0 Phases=1
New Generator.pv_load_p6ulv370_1 conn=wye bus1=p6ulv370.1 kV=0.12 model=7 kW=0.120231119495309 kvar=-0.0 Phases=1
New Generator.pv_load_p6ulv372_2 conn=wye bus1=p6ulv372.2 kV=0.12 model=7 kW=0.1563003952289431 kvar=-0.0 Phases=1
New Generator.pv_load_p6ulv374_1 conn=wye bus1=p6ulv374.1 kV=0.12 model=7 kW=0.08416184376167489 kvar=-0.0 Phases=1
New Generator.pv_load_p6ulv376_2 conn=wye bus1=p6ulv376.2 kV=0.12 model=7 kW=0.12473974139016412 kvar=-0.0 Phases=1
New Generator.pv_load_p6ulv388_2 conn=wye bus1=p6ulv388.2 kV=0.12 model=7 kW=0.3231209082125482 kvar=-0.0 Phases=1
New Generator.pv_load_p6ulv389_2 conn=wye bus1=p6ulv389.2 kV=0.12 model=7 kW=0.3802316217546783 kvar=-0.0 Phases=1
New Generator.pv_load_p6ulv391_1 conn=wye bus1=p6ulv391.1 kV=0.12 model=7 kW=0.2164153538270116 kvar=-0.0 Phases=1
New Generator.pv_load_p6ulv394_2 conn=wye bus1=p6ulv394.2 kV=0.12 model=7 kW=0.18635787452797736 kvar=-0.0 Phases=1
New Generator.pv_load_p6ulv395_2 conn=wye bus1=p6ulv395.2 kV=0.12 model=7 kW=0.08265896979672317 kvar=-0.0 Phases=1
New Generator.pv_load_p6ulv397_2 conn=wye bus1=p6ulv397.2 kV=0.12 model=7 kW=0.2449714620350591 kvar=-0.0 Phases=1
New Generator.pv_load_p6ulv398_2 conn=wye bus1=p6ulv398.2 kV=0.12 model=7 kW=0.25248583185981766 kvar=-0.0 Phases=1
New Generator.pv_load_p6ulv399_1 conn=wye bus1=p6ulv399.1 kV=0.12 model=7 kW=0.43283221052798815 kvar=-0.0 Phases=1
New Generator.pv_load_p6ulv400_1 conn=wye bus1=p6ulv400.1 kV=0.12 model=7 kW=0.2705203194392382 kvar=-0.0 Phases=1
New Generator.pv_load_p6ulv402_2 conn=wye bus1=p6ulv402.2 kV=0.12 model=7 kW=0.4989586649858636 kvar=-0.0 Phases=1
New Generator.pv_load_p6ulv404_1 conn=wye bus1=p6ulv404.1 kV=0.12 model=7 kW=0.1803463786681705 kvar=-0.0 Phases=1
New Generator.pv_load_p6ulv405_1 conn=wye bus1=p6ulv405.1 kV=0.12 model=7 kW=0.3171094123527413 kvar=-0.0 Phases=1
New Generator.pv_load_p6ulv407_1 conn=wye bus1=p6ulv407.1 kV=0.12 model=7 kW=0.20288948814244617 kvar=-0.0 Phases=1
New Generator.pv_load_p6ulv407_2 conn=wye bus1=p6ulv407.2 kV=0.12 model=7 kW=0.20288948814244617 kvar=-0.0 Phases=1
New Generator.pv_load_p6ulv408_1 conn=wye bus1=p6ulv408.1 kV=0.12 model=7 kW=0.25699445375467284 kvar=-0.0 Phases=1
New Generator.pv_load_p6ulv409_1 conn=wye bus1=p6ulv409.1 kV=0.12 model=7 kW=0.8927161524251072 kvar=-0.0 Phases=1
New Generator.pv_load_p6ulv411_1 conn=wye bus1=p6ulv411.1 kV=0.12 model=7 kW=0.2720231934041899 kvar=-0.0 Phases=1
New Generator.pv_load_p6ulv416_2 conn=wye bus1=p6ulv416.2 kV=0.12 model=7 kW=0.20739811003730133 kvar=-0.0 Phases=1
New Generator.pv_load_p6ulv419_1 conn=wye bus1=p6ulv419.1 kV=0.12 model=7 kW=0.2705203194392382 kvar=-0.0 Phases=1
New Generator.pv_load_p6ulv422_1 conn=wye bus1=p6ulv422.1 kV=0.12 model=7 kW=0.11271674967055043 kvar=-0.0 Phases=1
New Generator.pv_load_p6ulv423_2 conn=wye bus1=p6ulv423.2 kV=0.12 model=7 kW=0.2449714620350591 kvar=-0.0 Phases=1
New Generator.pv_load_p6ulv425_2 conn=wye bus1=p6ulv425.2 kV=0.12 model=7 kW=0.3636985052662444 kvar=-0.0 Phases=1
New Generator.pv_load_p6ulv426_1 conn=wye bus1=p6ulv426.1 kV=0.12 model=7 kW=0.4523695720723605 kvar=-0.0 Phases=1
New Generator.pv_load_p6ulv430_1 conn=wye bus1=p6ulv430.1 kV=0.12 model=7 kW=0.28404618512380364 kvar=-0.0 Phases=1
New Generator.pv_load_p6ulv436_1 conn=wye bus1=p6ulv436.1 kV=0.12 model=7 kW=0.5530636305980902 kvar=-0.0 Phases=1
New Generator.pv_load_p6ulv439_2 conn=wye bus1=p6ulv439.2 kV=0.12 model=7 kW=0.21942110175691504 kvar=-0.0 Phases=1
New Generator.pv_load_p6ulv440_2 conn=wye bus1=p6ulv440.2 kV=0.12 model=7 kW=0.26450882357943134 kvar=-0.0 Phases=1
New Generator.pv_load_p6ulv442_1 conn=wye bus1=p6ulv442.1 kV=0.12 model=7 kW=0.21190673193215645 kvar=-0.0 Phases=1
New Generator.pv_load_p6ulv442_2 conn=wye bus1=p6ulv442.2 kV=0.12 model=7 kW=0.21190673193215645 kvar=-0.0 Phases=1
New Generator.pv_load_p6ulv443_2 conn=wye bus1=p6ulv443.2 kV=0.12 model=7 kW=0.3171094123527413 kvar=-0.0 Phases=1
New Generator.pv_load_p6ulv444_1 conn=wye bus1=p6ulv444.1 kV=0.12 model=7 kW=0.1698262609135085 kvar=-0.0 Phases=1
New Generator.pv_load_p6ulv447_1 conn=wye bus1=p6ulv447.1 kV=0.12 model=7 kW=0.7604617406353915 kvar=-0.0 Phases=1
New Generator.pv_load_p6ulv448_1 conn=wye bus1=p6ulv448.1 kV=0.12 model=7 kW=0.32161803424759644 kvar=-0.0 Phases=1
New Generator.pv_load_p6ulv448_2 conn=wye bus1=p6ulv448.2 kV=0.12 model=7 kW=0.32161803424759644 kvar=-0.0 Phases=1
New Generator.pv_load_p6ulv452_2 conn=wye bus1=p6ulv452.2 kV=0.12 model=7 kW=0.10820797748829879 kvar=-0.0 Phases=1
New Generator.pv_load_p6ulv455_1 conn=wye bus1=p6ulv455.1 kV=0.12 model=7 kW=0.4824270513713947 kvar=-0.0 Phases=1
New Generator.pv_load_p6ulv457_2 conn=wye bus1=p6ulv457.2 kV=0.12 model=7 kW=0.17884350470321878 kvar=-0.0 Phases=1
New Generator.pv_load_p6ulv462_2 conn=wye bus1=p6ulv462.2 kV=0.12 model=7 kW=0.329132404072355 kvar=-0.0 Phases=1
New Generator.pv_load_p6ulv1588_1 conn=wye bus1=p6ulv1588.1 kV=0.12 model=7 kW=0.42231209277332615 kvar=-0.0 Phases=1
New Generator.pv_load_p6ulv1593_2 conn=wye bus1=p6ulv1593.2 kV=0.12 model=7 kW=0.19387224435273592 kvar=-0.0 Phases=1
New Generator.pv_load_p6ulv1595_1 conn=wye bus1=p6ulv1595.1 kV=0.12 model=7 kW=0.3621956313012927 kvar=-0.0 Phases=1
New Generator.pv_load_p6ulv1598_1 conn=wye bus1=p6ulv1598.1 kV=0.12 model=7 kW=0.07965307157942327 kvar=-0.0 Phases=1
New Generator.pv_load_p6ulv2249_1 conn=wye bus1=p6ulv2249.1 kV=0.12 model=7 kW=0.16381476505370163 kvar=-0.0 Phases=1
New Generator.pv_load_p6ulv2249_2 conn=wye bus1=p6ulv2249.2 kV=0.12 model=7 kW=0.16381476505370163 kvar=-0.0 Phases=1
New Generator.pv_load_p6ulv2253_1 conn=wye bus1=p6ulv2253.1 kV=0.12 model=7 kW=0.44184945431769845 kvar=-0.0 Phases=1
New Generator.pv_load_p6ulv2255_2 conn=wye bus1=p6ulv2255.2 kV=0.12 model=7 kW=0.23895996617525225 kvar=-0.0 Phases=1
New Generator.pv_load_p6ulv2258_2 conn=wye bus1=p6ulv2258.2 kV=0.12 model=7 kW=0.37722587382477485 kvar=-0.0 Phases=1
New Generator.pv_load_p6ulv2260_1 conn=wye bus1=p6ulv2260.1 kV=0.12 model=7 kW=0.21340960589710817 kvar=-0.0 Phases=1
New Generator.pv_load_p6ulv2260_2 conn=wye bus1=p6ulv2260.2 kV=0.12 model=7 kW=0.21340960589710817 kvar=-0.0 Phases=1
New Generator.pv_load_p6ulv2267_1 conn=wye bus1=p6ulv2267.1 kV=0.12 model=7 kW=0.23895996617525225 kvar=-0.0 Phases=1
New Generator.pv_load_p6ulv2269_1 conn=wye bus1=p6ulv2269.1 kV=0.12 model=7 kW=0.19537511831768767 kvar=-0.0 Phases=1
New Generator.pv_load_p6ulv2270_2 conn=wye bus1=p6ulv2270.2 kV=0.12 model=7 kW=0.15780326919389484 kvar=-0.0 Phases=1
New Generator.pv_load_p6ulv2274_1 conn=wye bus1=p6ulv2274.1 kV=0.12 model=7 kW=0.3757214969858581 kvar=-0.0 Phases=1
New Generator.pv_load_p6ulv2279_1 conn=wye bus1=p6ulv2279.1 kV=0.12 model=7 kW=0.9798843452662713 kvar=-0.0 Phases=1
New Generator.pv_load_p6ulv2281_1 conn=wye bus1=p6ulv2281.1 kV=0.12 model=7 kW=0.4824270513713947 kvar=-0.0 Phases=1
New Generator.pv_load_p6ulv2281_2 conn=wye bus1=p6ulv2281.2 kV=0.12 model=7 kW=0.4824270513713947 kvar=-0.0 Phases=1
New Generator.pv_load_p6ulv2286_2 conn=wye bus1=p6ulv2286.2 kV=0.12 model=7 kW=0.3636985052662444 kvar=-0.0 Phases=1
New Generator.pv_load_p6ulv2287_2 conn=wye bus1=p6ulv2287.2 kV=0.12 model=7 kW=0.3636985052662444 kvar=-0.0 Phases=1
New Generator.pv_load_p6ulv2288_1 conn=wye bus1=p6ulv2288.1 kV=0.12 model=7 kW=0.24046284014020394 kvar=-0.0 Phases=1
New Generator.pv_load_p6ulv2289_2 conn=wye bus1=p6ulv2289.2 kV=0.12 model=7 kW=0.25248583185981766 kvar=-0.0 Phases=1
New Generator.pv_load_p6ulv2291_1 conn=wye bus1=p6ulv2291.1 kV=0.12 model=7 kW=0.34265826975692043 kvar=-0.0 Phases=1
New Generator.pv_load_p6ulv2291_2 conn=wye bus1=p6ulv2291.2 kV=0.12 model=7 kW=0.34265826975692043 kvar=-0.0 Phases=1
New Generator.pv_load_p6ulv2292_2 conn=wye bus1=p6ulv2292.2 kV=0.12 model=7 kW=0.308092168563031 kvar=-0.0 Phases=1
New Generator.pv_load_p6ulv2295_1 conn=wye bus1=p6ulv2295.1 kV=0.12 model=7 kW=0.13676288339717432 kvar=-0.0 Phases=1
New Generator.pv_load_p6ulv2295_2 conn=wye bus1=p6ulv2295.2 kV=0.12 model=7 kW=0.13676288339717432 kvar=-0.0 Phases=1
New Generator.pv_load_p6ulv2297_1 conn=wye bus1=p6ulv2297.1 kV=0.12 model=7 kW=0.21040385796720473 kvar=-0.0 Phases=1
New Generator.pv_load_p6ulv2299_2 conn=wye bus1=p6ulv2299.2 kV=0.12 model=7 kW=0.46890118568682926 kvar=-0.0 Phases=1
New Generator.pv_load_p6ulv2301_1 conn=wye bus1=p6ulv2301.1 kV=0.12 model=7 kW=0.3471668916517756 kvar=-0.0 Phases=1
New Generator.pv_load_p6ulv2302_1 conn=wye bus1=p6ulv2302.1 kV=0.12 model=7 kW=0.19988374021254274 kvar=-0.0 Phases=1
New Generator.pv_load_p6ulv2306_1 conn=wye bus1=p6ulv2306.1 kV=0.12 model=7 kW=0.28855480701865877 kvar=-0.0 Phases=1
New Generator.pv_load_p6ulv2308_2 conn=wye bus1=p6ulv2308.2 kV=0.12 model=7 kW=0.24797720996496253 kvar=-0.0 Phases=1
New Generator.pv_load_p6ulv2309_1 conn=wye bus1=p6ulv2309.1 kV=0.12 model=7 kW=0.26300594961447965 kvar=-0.0 Phases=1
New Generator.pv_load_p6ulv2317_2 conn=wye bus1=p6ulv2317.2 kV=0.12 model=7 kW=0.28855480701865877 kvar=-0.0 Phases=1
New Generator.pv_load_p6ulv2318_2 conn=wye bus1=p6ulv2318.2 kV=0.12 model=7 kW=0.38624311761448504 kvar=-0.0 Phases=1
New Generator.pv_load_p6ulv2319_2 conn=wye bus1=p6ulv2319.2 kV=0.12 model=7 kW=0.23294847031544538 kvar=-0.0 Phases=1
New Generator.pv_load_p6ulv2329_2 conn=wye bus1=p6ulv2329.2 kV=0.12 model=7 kW=0.21190673193215645 kvar=-0.0 Phases=1
New Generator.pv_load_p6ulv2428 conn=wye bus1=p6ulv2428.1.2.3 kV=0.48 model=7 kW=7.718850856429895 kvar=-0.0 Phases=3
New Generator.pv_load_p6ulv2435 conn=wye bus1=p6ulv2435.1.2.3 kV=0.48 model=7 kW=13.556073451260945 kvar=-0.0 Phases=3
New Generator.pv_load_p6ulv2436 conn=wye bus1=p6ulv2436.1.2.3 kV=0.48 model=7 kW=14.710280656343862 kvar=-0.0 Phases=3
New Generator.pv_load_p6ulv2457_2 conn=wye bus1=p6ulv2457.2 kV=0.12 model=7 kW=2.215251253078474 kvar=-0.0 Phases=1
New Generator.pv_load_p6ulv2464_2 conn=wye bus1=p6ulv2464.2 kV=0.12 model=7 kW=0.24797720996496253 kvar=-0.0 Phases=1
New Generator.pv_load_p6ulv2467_2 conn=wye bus1=p6ulv2467.2 kV=0.12 model=7 kW=1.0520222955839535 kvar=-0.0 Phases=1
New Generator.pv_load_p6ulv2469_2 conn=wye bus1=p6ulv2469.2 kV=0.12 model=7 kW=0.13676288339717432 kvar=-0.0 Phases=1
New Generator.pv_load_p6ulv2475_2 conn=wye bus1=p6ulv2475.2 kV=0.12 model=7 kW=0.41479772294856765 kvar=-0.0 Phases=1
New Generator.pv_load_p6ulv2476_1 conn=wye bus1=p6ulv2476.1 kV=0.12 model=7 kW=0.1698262609135085 kvar=-0.0 Phases=1
New Generator.pv_load_p6ulv2482_1 conn=wye bus1=p6ulv2482.1 kV=0.12 model=7 kW=1.1046228843572636 kvar=-0.0 Phases=1
New Generator.pv_load_p6ulv2485_1 conn=wye bus1=p6ulv2485.1 kV=0.12 model=7 kW=0.26450882357943134 kvar=-0.0 Phases=1
New Generator.pv_load_p6ulv2488_1 conn=wye bus1=p6ulv2488.1 kV=0.12 model=7 kW=0.3231209082125482 kvar=-0.0 Phases=1
New Generator.pv_load_p6ulv2491_2 conn=wye bus1=p6ulv2491.2 kV=0.12 model=7 kW=0.34566401768682387 kvar=-0.0 Phases=1
New Generator.pv_load_p6ulv2494_1 conn=wye bus1=p6ulv2494.1 kV=0.12 model=7 kW=0.10971085145325049 kvar=-0.0 Phases=1
New Generator.pv_load_p6ulv2496_2 conn=wye bus1=p6ulv2496.2 kV=0.12 model=7 kW=0.18936362245788077 kvar=-0.0 Phases=1
New Generator.pv_load_p6ulv2497_2 conn=wye bus1=p6ulv2497.2 kV=0.12 model=7 kW=0.22242684968681845 kvar=-0.0 Phases=1
New Generator.pv_load_p6ulv2502_1 conn=wye bus1=p6ulv2502.1 kV=0.12 model=7 kW=0.7018496560022748 kvar=-0.0 Phases=1
New Generator.pv_load_p6ulv2506_2 conn=wye bus1=p6ulv2506.2 kV=0.12 model=7 kW=0.21491247986205989 kvar=-0.0 Phases=1
New Generator.pv_load_p6ulv2507_1 conn=wye bus1=p6ulv2507.1 kV=0.12 model=7 kW=0.34566401768682387 kvar=-0.0 Phases=1
New Generator.pv_load_p6ulv2507_2 conn=wye bus1=p6ulv2507.2 kV=0.12 model=7 kW=0.34566401768682387 kvar=-0.0 Phases=1
New Generator.pv_load_p6ulv2511_1 conn=wye bus1=p6ulv2511.1 kV=0.12 model=7 kW=0.3050864206331276 kvar=-0.0 Phases=1
New Generator.pv_load_p6ulv2514_1 conn=wye bus1=p6ulv2514.1 kV=0.12 model=7 kW=0.8521385553714109 kvar=-0.0 Phases=1
New Generator.pv_load_p6ulv2515_2 conn=wye bus1=p6ulv2515.2 kV=0.12 model=7 kW=0.17734063073826706 kvar=-0.0 Phases=1
New Generator.pv_load_p6ulv2516_2 conn=wye bus1=p6ulv2516.2 kV=0.12 model=7 kW=0.33213815200225844 kvar=-0.0 Phases=1
New Generator.pv_load_p6ulv2517_1 conn=wye bus1=p6ulv2517.1 kV=0.12 model=7 kW=0.3020806727032242 kvar=-0.0 Phases=1
New Generator.pv_load_p6ulv2520_2 conn=wye bus1=p6ulv2520.2 kV=0.12 model=7 kW=0.15179177333408797 kvar=-0.0 Phases=1
New Generator.pv_load_p6ulv2522_1 conn=wye bus1=p6ulv2522.1 kV=0.12 model=7 kW=0.16381476505370163 kvar=-0.0 Phases=1
New Generator.pv_load_p6ulv2523_2 conn=wye bus1=p6ulv2523.2 kV=0.12 model=7 kW=0.24346858807010738 kvar=-0.0 Phases=1
New Generator.pv_load_p6ulv2528_1 conn=wye bus1=p6ulv2528.1 kV=0.12 model=7 kW=0.2164153538270116 kvar=-0.0 Phases=1
New Generator.pv_load_p6ulv2529_2 conn=wye bus1=p6ulv2529.2 kV=0.12 model=7 kW=0.2675145715093348 kvar=-0.0 Phases=1
New Generator.pv_load_p6ulv2531_1 conn=wye bus1=p6ulv2531.1 kV=0.12 model=7 kW=0.43283221052798815 kvar=-0.0 Phases=1
New Generator.pv_load_p6ulv2535_2 conn=wye bus1=p6ulv2535.2 kV=0.12 model=7 kW=0.18936362245788077 kvar=-0.0 Phases=1
New Generator.pv_load_p6ulv2540_2 conn=wye bus1=p6ulv2540.2 kV=0.12 model=7 kW=0.22994272238554195 kvar=-0.0 Phases=1
New Generator.pv_load_p6ulv2543_2 conn=wye bus1=p6ulv2543.2 kV=0.12 model=7 kW=0.20890098400225304 kvar=-0.0 Phases=1
New Generator.pv_load_p6ulv2548_1 conn=wye bus1=p6ulv2548.1 kV=0.12 model=7 kW=0.11421962363550214 kvar=-0.0 Phases=1
New Generator.pv_load_p6ulv2549_1 conn=wye bus1=p6ulv2549.1 kV=0.12 model=7 kW=0.2539887058247694 kvar=-0.0 Phases=1
New Generator.pv_load_p6ulv2551_1 conn=wye bus1=p6ulv2551.1 kV=0.12 model=7 kW=0.17884350470321878 kvar=-0.0 Phases=1
New Generator.pv_load_p6ulv2551_2 conn=wye bus1=p6ulv2551.2 kV=0.12 model=7 kW=0.17884350470321878 kvar=-0.0 Phases=1
New Generator.pv_load_p6ulv2554_1 conn=wye bus1=p6ulv2554.1 kV=0.12 model=7 kW=0.25699445375467284 kvar=-0.0 Phases=1
New Generator.pv_load_p6ulv2556_1 conn=wye bus1=p6ulv2556.1 kV=0.12 model=7 kW=0.17583775677331534 kvar=-0.0 Phases=1
New Generator.pv_load_p6ulv2557_1 conn=wye bus1=p6ulv2557.1 kV=0.12 model=7 kW=0.13976863132707776 kvar=-0.0 Phases=1
New Generator.pv_load_p6ulv2558_1 conn=wye bus1=p6ulv2558.1 kV=0.12 model=7 kW=0.1322542615023192 kvar=-0.0 Phases=1
New Generator.pv_load_p6ulv2560_1 conn=wye bus1=p6ulv2560.1 kV=0.12 model=7 kW=0.08265896979672317 kvar=-0.0 Phases=1
New Generator.pv_load_p6ulv2561_1 conn=wye bus1=p6ulv2561.1 kV=0.12 model=7 kW=0.17283200884341193 kvar=-0.0 Phases=1
New Generator.pv_load_p6ulv2562_1 conn=wye bus1=p6ulv2562.1 kV=0.12 model=7 kW=0.18485500056302565 kvar=-0.0 Phases=1
New Generator.pv_load_p6ulv2565_2 conn=wye bus1=p6ulv2565.2 kV=0.12 model=7 kW=0.10670510352334708 kvar=-0.0 Phases=1
New Generator.pv_load_p6ulv2571_1 conn=wye bus1=p6ulv2571.1 kV=0.12 model=7 kW=0.7484387489157778 kvar=-0.0 Phases=1
New Generator.pv_load_p6ulv2575_2 conn=wye bus1=p6ulv2575.2 kV=0.12 model=7 kW=0.49294716912605674 kvar=-0.0 Phases=1
New Generator.pv_load_p6ulv2577_1 conn=wye bus1=p6ulv2577.1 kV=0.12 model=7 kW=0.7228898915115987 kvar=-0.0 Phases=1
New Generator.pv_load_p6ulv2577_2 conn=wye bus1=p6ulv2577.2 kV=0.12 model=7 kW=0.7228898915115987 kvar=-0.0 Phases=1
New Generator.pv_load_p6ulv2579_1 conn=wye bus1=p6ulv2579.1 kV=0.12 model=7 kW=0.5756067400723658 kvar=-0.0 Phases=1
New Generator.pv_load_p6ulv2581_2 conn=wye bus1=p6ulv2581.2 kV=0.12 model=7 kW=0.22242684968681845 kvar=-0.0 Phases=1
New Generator.pv_load_p6ulv3298_1 conn=wye bus1=p6ulv3298.1 kV=0.12 model=7 kW=0.7349128832312123 kvar=-0.0 Phases=1
New Generator.pv_load_p6ulv3304_1 conn=wye bus1=p6ulv3304.1 kV=0.12 model=7 kW=0.34265826975692043 kvar=-0.0 Phases=1
New Generator.pv_load_p6ulv3306_1 conn=wye bus1=p6ulv3306.1 kV=0.12 model=7 kW=1.4187265487801015 kvar=-0.0 Phases=1
New Generator.pv_load_p6ulv3307_2 conn=wye bus1=p6ulv3307.2 kV=0.12 model=7 kW=0.4553753200022639 kvar=-0.0 Phases=1
New Generator.pv_load_p6ulv3314_2 conn=wye bus1=p6ulv3314.2 kV=0.12 model=7 kW=0.17283200884341193 kvar=-0.0 Phases=1
New Generator.pv_load_p6ulv3317_2 conn=wye bus1=p6ulv3317.2 kV=0.12 model=7 kW=0.3306352780373067 kvar=-0.0 Phases=1
New Generator.pv_load_p6ulv3324 conn=wye bus1=p6ulv3324.1.2.3 kV=0.48 model=7 kW=6.30912501982589 kvar=-0.0 Phases=3
New Generator.pv_load_p6ulv3325_1 conn=wye bus1=p6ulv3325.1 kV=0.12 model=7 kW=0.15329464729903966 kvar=-0.0 Phases=1
New Generator.pv_load_p6ulv3327_1 conn=wye bus1=p6ulv3327.1 kV=0.12 model=7 kW=0.1232368674252124 kvar=-0.0 Phases=1
New Generator.pv_load_p6ulv3328_2 conn=wye bus1=p6ulv3328.2 kV=0.12 model=7 kW=0.329132404072355 kvar=-0.0 Phases=1
New Generator.pv_load_p6ulv3330_1 conn=wye bus1=p6ulv3330.1 kV=0.12 model=7 kW=0.6507504383199515 kvar=-0.0 Phases=1
New Generator.pv_load_p6ulv3330_2 conn=wye bus1=p6ulv3330.2 kV=0.12 model=7 kW=0.6507504383199515 kvar=-0.0 Phases=1
New Generator.pv_load_p6ulv3339_1 conn=wye bus1=p6ulv3339.1 kV=0.12 model=7 kW=0.1322542615023192 kvar=-0.0 Phases=1
New Generator.pv_load_p6ulv3343_1 conn=wye bus1=p6ulv3343.1 kV=0.12 model=7 kW=0.31109791649293445 kvar=-0.0 Phases=1
New Generator.pv_load_p6ulv3345_2 conn=wye bus1=p6ulv3345.2 kV=0.12 model=7 kW=0.3336410259672101 kvar=-0.0 Phases=1
New Generator.pv_load_p6ulv3604_1 conn=wye bus1=p6ulv3604.1 kV=0.12 model=7 kW=0.339652521827017 kvar=-0.0 Phases=1
New Generator.pv_load_p6ulv3604_2 conn=wye bus1=p6ulv3604.2 kV=0.12 model=7 kW=0.339652521827017 kvar=-0.0 Phases=1
New Generator.pv_load_p6ulv3605_2 conn=wye bus1=p6ulv3605.2 kV=0.12 model=7 kW=0.2915605549485622 kvar=-0.0 Phases=1
New Generator.pv_load_p6ulv3606_1 conn=wye bus1=p6ulv3606.1 kV=0.12 model=7 kW=0.2464743360000108 kvar=-0.0 Phases=1
New Generator.pv_load_p6ulv3607_2 conn=wye bus1=p6ulv3607.2 kV=0.12 model=7 kW=0.26150307564952796 kvar=-0.0 Phases=1
New Generator.pv_load_p6ulv3608_2 conn=wye bus1=p6ulv3608.2 kV=0.12 model=7 kW=0.6327159507405309 kvar=-0.0 Phases=1
New Generator.pv_load_p6ulv3609_1 conn=wye bus1=p6ulv3609.1 kV=0.12 model=7 kW=0.40728335312380903 kvar=-0.0 Phases=1
New Generator.pv_load_p6ulv3616_2 conn=wye bus1=p6ulv3616.2 kV=0.12 model=7 kW=0.15930614315884653 kvar=-0.0 Phases=1
New Generator.pv_load_p6ulv3626_2 conn=wye bus1=p6ulv3626.2 kV=0.12 model=7 kW=0.34115539579196874 kvar=-0.0 Phases=1
New Generator.pv_load_p6ulv5028_1 conn=wye bus1=p6ulv5028.1 kV=0.12 model=7 kW=0.2720231934041899 kvar=-0.0 Phases=1
New Generator.pv_load_p6ulv5029_1 conn=wye bus1=p6ulv5029.1 kV=0.12 model=7 kW=0.360692757336341 kvar=-0.0 Phases=1
New Generator.pv_load_p6ulv5030_1 conn=wye bus1=p6ulv5030.1 kV=0.12 model=7 kW=0.19537511831768767 kvar=-0.0 Phases=1
New Generator.pv_load_p6ulv5031_2 conn=wye bus1=p6ulv5031.2 kV=0.12 model=7 kW=0.11121372541820221 kvar=-0.0 Phases=1
New Generator.pv_load_p6ulv5034_2 conn=wye bus1=p6ulv5034.2 kV=0.12 model=7 kW=0.19537511831768767 kvar=-0.0 Phases=1
New Generator.pv_load_p6ulv5037_2 conn=wye bus1=p6ulv5037.2 kV=0.12 model=7 kW=0.9813872192312233 kvar=-0.0 Phases=1
New Generator.pv_load_p6ulv5038_2 conn=wye bus1=p6ulv5038.2 kV=0.12 model=7 kW=2.1295874370762267 kvar=-0.0 Phases=1
New Generator.pv_load_p6ulv5040_2 conn=wye bus1=p6ulv5040.2 kV=0.12 model=7 kW=0.18936362245788077 kvar=-0.0 Phases=1
New Generator.pv_load_p6ulv5045_2 conn=wye bus1=p6ulv5045.2 kV=0.12 model=7 kW=1.8695902411395802 kvar=-0.0 Phases=1
New Generator.pv_load_p6ulv5046_2 conn=wye bus1=p6ulv5046.2 kV=0.12 model=7 kW=1.6125987931328374 kvar=-0.0 Phases=1
New Generator.pv_load_p6ulv5048_1 conn=wye bus1=p6ulv5048.1 kV=0.12 model=7 kW=1.9462368133521177 kvar=-0.0 Phases=1
New Generator.pv_load_p6ulv5049_1 conn=wye bus1=p6ulv5049.1 kV=0.12 model=7 kW=0.3020806727032242 kvar=-0.0 Phases=1
New Generator.pv_load_p6ulv5053_2 conn=wye bus1=p6ulv5053.2 kV=0.12 model=7 kW=0.19838086624759108 kvar=-0.0 Phases=1
New Generator.pv_load_p6ulv5056_2 conn=wye bus1=p6ulv5056.2 kV=0.12 model=7 kW=0.5695952442125589 kvar=-0.0 Phases=1
New Generator.pv_load_p6ulv5057_2 conn=wye bus1=p6ulv5057.2 kV=0.12 model=7 kW=0.76797611046015 kvar=-0.0 Phases=1
New Generator.pv_load_p6ulv5060_1 conn=wye bus1=p6ulv5060.1 kV=0.12 model=7 kW=0.11121372541820221 kvar=-0.0 Phases=1
New Generator.pv_load_p6ulv5063_1 conn=wye bus1=p6ulv5063.1 kV=0.12 model=7 kW=0.24046284014020394 kvar=-0.0 Phases=1
New Generator.pv_load_p6ulv5068_1 conn=wye bus1=p6ulv5068.1 kV=0.12 model=7 kW=0.22092397572186676 kvar=-0.0 Phases=1
New Generator.pv_load_p6ulv5068_2 conn=wye bus1=p6ulv5068.2 kV=0.12 model=7 kW=0.22092397572186676 kvar=-0.0 Phases=1
New Generator.pv_load_p6ulv5071_1 conn=wye bus1=p6ulv5071.1 kV=0.12 model=7 kW=0.19988374021254274 kvar=-0.0 Phases=1
New Generator.pv_load_p6ulv5074_1 conn=wye bus1=p6ulv5054.1 kV=0.12 model=7 kW=0.14728315143923282 kvar=-0.0 Phases=1
New Generator.pv_load_p6ulv5076_2 conn=wye bus1=p6ulv5076.2 kV=0.12 model=7 kW=0.10369935559344366 kvar=-0.0 Phases=1
New Generator.pv_load_p6ulv5077_1 conn=wye bus1=p6ulv5077.1 kV=0.12 model=7 kW=0.14127150529202945 kvar=-0.0 Phases=1
New Generator.pv_load_p6ulv5080_1 conn=wye bus1=p6ulv5080.1 kV=0.12 model=7 kW=0.2825433111588519 kvar=-0.0 Phases=1
New Generator.pv_load_p6ulv5081_2 conn=wye bus1=p6ulv5081.2 kV=0.12 model=7 kW=0.1232368674252124 kvar=-0.0 Phases=1
New Generator.pv_load_p6ulv5083_1 conn=wye bus1=p6ulv5083.1 kV=0.12 model=7 kW=0.1923693703877842 kvar=-0.0 Phases=1
New Generator.pv_load_p6ulv5085_2 conn=wye bus1=p6ulv5085.2 kV=0.12 model=7 kW=0.11421962363550214 kvar=-0.0 Phases=1
New Generator.pv_load_p6ulv5086_1 conn=wye bus1=p6ulv5086.1 kV=0.12 model=7 kW=0.17132913487846022 kvar=-0.0 Phases=1
New Generator.pv_load_p6ulv5104_2 conn=wye bus1=p6ulv5104.2 kV=0.12 model=7 kW=0.6101728412662552 kvar=-0.0 Phases=1
New Generator.pv_load_p6ulv5105_1 conn=wye bus1=p6ulv5105.1 kV=0.12 model=7 kW=0.1698262609135085 kvar=-0.0 Phases=1
New Generator.pv_load_p6ulv5108_1 conn=wye bus1=p6ulv5108.1 kV=0.12 model=7 kW=0.3381496478620653 kvar=-0.0 Phases=1
New Generator.pv_load_p6ulv5111_2 conn=wye bus1=p6ulv5111.2 kV=0.12 model=7 kW=0.13826575736212604 kvar=-0.0 Phases=1
New Generator.pv_load_p6ulv5116_2 conn=wye bus1=p6ulv5116.2 kV=0.12 model=7 kW=0.27502894133409334 kvar=-0.0 Phases=1
New Generator.pv_load_p6ulv5119_1 conn=wye bus1=p6ulv5119.1 kV=0.12 model=7 kW=0.15179177333408797 kvar=-0.0 Phases=1
New Generator.pv_load_p6ulv5127_1 conn=wye bus1=p6ulv5127.1 kV=0.12 model=7 kW=0.14127150529202945 kvar=-0.0 Phases=1
New Generator.pv_load_p6ulv5129_2 conn=wye bus1=p6ulv5129.2 kV=0.12 model=7 kW=0.17734063073826706 kvar=-0.0 Phases=1
New Generator.pv_load_p6ulv5136_1 conn=wye bus1=p6ulv5136.1 kV=0.12 model=7 kW=1.2549117837263999 kvar=-0.0 Phases=1
New Generator.pv_load_p6ulv5141_1 conn=wye bus1=p6ulv5141.1 kV=0.12 model=7 kW=0.29907492477332076 kvar=-0.0 Phases=1
New Generator.pv_load_p6ulv5151_2 conn=wye bus1=p6ulv5151.2 kV=0.12 model=7 kW=0.5094787827405255 kvar=-0.0 Phases=1
New Generator.pv_load_p6ulv5153_1 conn=wye bus1=p6ulv5153.1 kV=0.12 model=7 kW=0.38624311761448504 kvar=-0.0 Phases=1
New Generator.pv_load_p6ulv5154_1 conn=wye bus1=p6ulv5154.1 kV=0.12 model=7 kW=0.4403465803527467 kvar=-0.0 Phases=1
New Generator.pv_load_p6ulv5155_2 conn=wye bus1=p6ulv5155.2 kV=0.12 model=7 kW=0.16231189108874994 kvar=-0.0 Phases=1
New Generator.pv_load_p6ulv5156_1 conn=wye bus1=p6ulv5156.1 kV=0.12 model=7 kW=0.22543410049068682 kvar=-0.0 Phases=1
New Generator.pv_load_p6ulv5158_1 conn=wye bus1=p6ulv5158.1 kV=0.12 model=7 kW=0.40728335312380903 kvar=-0.0 Phases=1
New Generator.pv_load_p6ulv5158_2 conn=wye bus1=p6ulv5158.2 kV=0.12 model=7 kW=0.40728335312380903 kvar=-0.0 Phases=1
New Generator.pv_load_p6ulv5159_1 conn=wye bus1=p6ulv5159.1 kV=0.12 model=7 kW=0.2810404371939002 kvar=-0.0 Phases=1
New Generator.pv_load_p6ulv5160_1 conn=wye bus1=p6ulv5160.1 kV=0.12 model=7 kW=0.29456630287846564 kvar=-0.0 Phases=1
New Generator.pv_load_p6ulv5165_1 conn=wye bus1=p6ulv5165.1 kV=0.12 model=7 kW=0.07965307157942327 kvar=-0.0 Phases=1
New Generator.pv_load_p6ulv5168_1 conn=wye bus1=p6ulv5168.1 kV=0.12 model=7 kW=0.2584973277196246 kvar=-0.0 Phases=1