New Generator.pv_load_p6ulv12413_2 conn=wye bus1=p6ulv12413.2 kV=0.12 model=7 kW=0.1322542615023192 kvar=-0.0 Phases=1
New Generator.pv_load_p6ulv12416_2 conn=wye bus1=p6ulv12416.2 kV=0.12 model=7 kW=0.13075138753736748 kvar=-0.0 Phases=1
New Generator.pv_load_p6ulv12417_1 conn=wye bus1=p6ulv12417.1 kV=0.12 model=7 kW=0.40728335312380903 kvar=-0.0 Phases=1
New Generator.pv_load_p6ulv12420_1 conn=wye bus1=p6ulv12420.1 kV=0.12 model=7 kW=0.11722537156540556 kvar=-0.0 Phases=1
New Generator.pv_load_p6ulv12425_1 conn=wye bus1=p6ulv12425.1 kV=0.12 model=7 kW=0.5109816567054772 kvar=-0.0 Phases=1
New Generator.pv_load_p6ulv12425_2 conn=wye bus1=p6ulv12425.2 kV=0.12 model=7 kW=0.5109816567054772 kvar=-0.0 Phases=1
New Generator.pv_load_p6ulv12426_1 conn=wye bus1=p6ulv12426.1 kV=0.12 model=7 kW=0.6086699673013035 kvar=-0.0 Phases=1
New Generator.pv_load_p6ulv12426_2 conn=wye bus1=p6ulv12426.2 kV=0.12 model=7 kW=0.6086699673013035 kvar=-0.0 Phases=1
New Generator.pv_load_p6ulv12429_1 conn=wye bus1=p6ulv12429.1 kV=0.12 model=7 kW=0.21942110175691504 kvar=-0.0 Phases=1
New Generator.pv_load_p6ulv12431_1 conn=wye bus1=p6ulv12431.1 kV=0.12 model=7 kW=0.3005777987382725 kvar=-0.0 Phases=1
New Generator.pv_load_p6ulv12431_2 conn=wye bus1=p6ulv12431.2 kV=0.12 model=7 kW=0.3005777987382725 kvar=-0.0 Phases=1
New Generator.pv_load_p6ulv12435_2 conn=wye bus1=p6ulv12435.2 kV=0.12 model=7 kW=0.34115539579196874 kvar=-0.0 Phases=1
New Generator.pv_load_p6ulv12436_2 conn=wye bus1=p6ulv12436.2 kV=0.12 model=7 kW=0.2344513442803971 kvar=-0.0 Phases=1
New Generator.pv_load_p6ulv12437_1 conn=wye bus1=p6ulv12437.1 kV=0.12 model=7 kW=0.34265826975692043 kvar=-0.0 Phases=1
New Generator.pv_load_p6ulv12439_1 conn=wye bus1=p6ulv12439.1 kV=0.12 model=7 kW=0.2539887058247694 kvar=-0.0 Phases=1
New Generator.pv_load_p6ulv12441_2 conn=wye bus1=p6ulv12441.2 kV=0.12 model=7 kW=0.5169931525652841 kvar=-0.0 Phases=1
New Generator.pv_load_p6ulv19675_1 conn=wye bus1=p6ulv19675.1 kV=0.12 model=7 kW=0.4448552022476019 kvar=-0.0 Phases=1
New Generator.pv_load_p6ulv19675_2 conn=wye bus1=p6ulv19675.2 kV=0.12 model=7 kW=0.4448552022476019 kvar=-0.0 Phases=1
New Generator.pv_load_p6ulv19680_1 conn=wye bus1=p6ulv19680.1 kV=0.12 model=7 kW=0.10520222955839537 kvar=-0.0 Phases=1
New Generator.pv_load_p6ulv19680_2 conn=wye bus1=p6ulv19680.2 kV=0.12 model=7 kW=0.10520222955839537 kvar=-0.0 Phases=1
New Generator.pv_load_p6ulv19681_1 conn=wye bus1=p6ulv19681.1 kV=0.12 model=7 kW=0.14427740350932938 kvar=-0.0 Phases=1
New Generator.pv_load_p6ulv19683_2 conn=wye bus1=p6ulv19683.2 kV=0.12 model=7 kW=0.1352600094322226 kvar=-0.0 Phases=1
New Generator.pv_load_p6ulv19684_2 conn=wye bus1=p6ulv19684.2 kV=0.12 model=7 kW=0.5710981181775107 kvar=-0.0 Phases=1
New Generator.pv_load_p6ulv19687_1 conn=wye bus1=p6ulv19687.1 kV=0.12 model=7 kW=0.07815019761447155 kvar=-0.0 Phases=1
New Generator.pv_load_p6ulv19698_2 conn=wye bus1=p6ulv19697.2 kV=0.12 model=7 kW=0.10820797748829879 kvar=-0.0 Phases=1
New Generator.pv_load_p6ulv19699_2 conn=wye bus1=p6ulv19699.2 kV=0.12 model=7 kW=0.07213870175466469 kvar=-0.0 Phases=1
New Generator.pv_load_p6ulv19700_1 conn=wye bus1=p6ulv19700.1 kV=0.12 model=7 kW=0.21791822779196332 kvar=-0.0 Phases=1
New Generator.pv_load_p6ulv19700_2 conn=wye bus1=p6ulv19700.2 kV=0.12 model=7 kW=0.21791822779196332 kvar=-0.0 Phases=1
New Generator.pv_load_p6ulv19704_1 conn=wye bus1=p6ulv19704.1 kV=0.12 model=7 kW=0.2900576809836105 kvar=-0.0 Phases=1
New Generator.pv_load_p6ulv19707_1 conn=wye bus1=p6ulv19707.1 kV=0.12 model=7 kW=0.2825433111588519 kvar=-0.0 Phases=1
New Generator.pv_load_p6ulv19709_1 conn=wye bus1=p6ulv19709.1 kV=0.12 model=7 kW=0.08416184376167489 kvar=-0.0 Phases=1
New Generator.pv_load_p6ulv19710_2 conn=wye bus1=p6ulv19710.2 kV=0.12 model=7 kW=0.11722537156540556 kvar=-0.0 Phases=1
New Generator.pv_load_p6ulv19712_1 conn=wye bus1=p6ulv19712.1 kV=0.12 model=7 kW=0.1803463786681705 kvar=-0.0 Phases=1
New Generator.pv_load_p6ulv19720_1 conn=wye bus1=p6ulv19720.1 kV=0.12 model=7 kW=1.1662422197942488 kvar=-0.0 Phases=1
New Generator.pv_load_p6ulv19723_1 conn=wye bus1=p6ulv19723.1 kV=0.12 model=7 kW=0.17734063073826706 kvar=-0.0 Phases=1
New Generator.pv_load_p6ulv19724_2 conn=wye bus1=p6ulv19724.2 kV=0.12 model=7 kW=0.32011516028264475 kvar=-0.0 Phases=1
New Generator.pv_load_p6ulv19728_1 conn=wye bus1=p6ulv19728.1 kV=0.12 model=7 kW=0.5455492607733315 kvar=-0.0 Phases=1
New Generator.pv_load_p6ulv19731_2 conn=wye bus1=p6ulv19731.2 kV=0.12 model=7 kW=0.3306352780373067 kvar=-0.0 Phases=1
New Generator.pv_load_p6ulv19734_1 conn=wye bus1=p6ulv19734.1 kV=0.12 model=7 kW=0.21942110175691504 kvar=-0.0 Phases=1
New Generator.pv_load_p6ulv22247_1 conn=wye bus1=p6ulv22247.1 kV=0.12 model=7 kW=0.16832338694855678 kvar=-0.0 Phases=1
New Generator.pv_load_p6ulv22249_2 conn=wye bus1=p6ulv22249.2 kV=0.12 model=7 kW=0.3516755135466307 kvar=-0.0 Phases=1
New Generator.pv_load_p6ulv22253_2 conn=wye bus1=p6ulv22253.2 kV=0.12 model=7 kW=0.1563003952289431 kvar=-0.0 Phases=1
New Generator.pv_load_p6ulv22338_1 conn=wye bus1=p6ulv22338.1 kV=0.12 model=7 kW=0.3126007904578862 kvar=-0.0 Phases=1
New Generator.pv_load_p6ulv22340_1 conn=wye bus1=p6ulv22340.1 kV=0.12 model=7 kW=0.34265826975692043 kvar=-0.0 Phases=1
New Generator.pv_load_p6ulv22340_2 conn=wye bus1=p6ulv22340.2 kV=0.12 model=7 kW=0.34265826975692043 kvar=-0.0 Phases=1
New Generator.pv_load_p6ulv22343_2 conn=wye bus1=p6ulv22343.2 kV=0.12 model=7 kW=0.43433508449293984 kvar=-0.0 Phases=1
New Generator.pv_load_p6ulv22344_2 conn=wye bus1=p6ulv22344.2 kV=0.12 model=7 kW=0.2600002016845762 kvar=-0.0 Phases=1
New Generator.pv_load_p6ulv22348_2 conn=wye bus1=p6ulv22348.2 kV=0.12 model=7 kW=0.30959504252798276 kvar=-0.0 Phases=1
New Generator.pv_load_p6ulv22349_1 conn=wye bus1=p6ulv22349.1 kV=0.12 model=7 kW=0.2344513442803971 kvar=-0.0 Phases=1
New Generator.pv_load_p6ulv22349_2 conn=wye bus1=p6ulv22349.2 kV=0.12 model=7 kW=0.2344513442803971 kvar=-0.0 Phases=1
New Generator.pv_load_p6ulv22350_2 conn=wye bus1=p6ulv22350.2 kV=0.12 model=7 kW=0.44335232828265014 kvar=-0.0 Phases=1
New Generator.pv_load_p6ulv22352_2 conn=wye bus1=p6ulv22352.2 kV=0.12 model=7 kW=0.2930634289135139 kvar=-0.0 Phases=1
New Generator.pv_load_p6ulv22354_2 conn=wye bus1=p6ulv22354.2 kV=0.12 model=7 kW=0.16080901712379822 kvar=-0.0 Phases=1
New Generator.pv_load_p6ulv22356_2 conn=wye bus1=p6ulv22356.2 kV=0.12 model=7 kW=0.1908664964228325 kvar=-0.0 Phases=1
New Generator.pv_load_p6ulv22357_1 conn=wye bus1=p6ulv22357.1 kV=0.12 model=7 kW=0.30959504252798276 kvar=-0.0 Phases=1
New Generator.pv_load_p6ulv22359_2 conn=wye bus1=p6ulv22359.2 kV=0.12 model=7 kW=0.39676323536914704 kvar=-0.0 Phases=1
New Generator.pv_load_p6ulv22360_1 conn=wye bus1=p6ulv22360.1 kV=0.12 model=7 kW=0.34115539579196874 kvar=-0.0 Phases=1
New Generator.pv_load_p6ulv22361_1 conn=wye bus1=p6ulv22361.1 kV=0.12 model=7 kW=0.3336410259672101 kvar=-0.0 Phases=1
New Generator.pv_load_p6ulv22361_2 conn=wye bus1=p6ulv22361.2 kV=0.12 model=7 kW=0.3336410259672101 kvar=-0.0 Phases=1
New Generator.pv_load_p6ulv22364_1 conn=wye bus1=p6ulv22364.1 kV=0.12 model=7 kW=0.20739811003730133 kvar=-0.0 Phases=1
New Generator.pv_load_p6ulv22365_1 conn=wye bus1=p6ulv22365.1 kV=0.12 model=7 kW=0.09167621358643346 kvar=-0.0 Phases=1
New Generator.pv_load_p6ulv22366_2 conn=wye bus1=p6ulv22366.2 kV=0.12 model=7 kW=0.39676323536914704 kvar=-0.0 Phases=1
New Generator.pv_load_p6ulv22376_2 conn=wye bus1=p6ulv22376.2 kV=0.12 model=7 kW=0.13976863132707776 kvar=-0.0 Phases=1
New Generator.pv_load_p6ulv22377_1 conn=wye bus1=p6ulv22377.1 kV=0.12 model=7 kW=0.360692757336341 kvar=-0.0 Phases=1
New Generator.pv_load_p6ulv22410_2 conn=wye bus1=p6ulv22410.2 kV=0.12 model=7 kW=0.14728315143923282 kvar=-0.0 Phases=1
New Generator.pv_load_p6ulv22412_2 conn=wye bus1=p6ulv22412.2 kV=0.12 model=7 kW=0.1923693703877842 kvar=-0.0 Phases=1
New Generator.pv_load_p6ulv22413_1 conn=wye bus1=p6ulv22413.1 kV=0.12 model=7 kW=0.4749126815466361 kvar=-0.0 Phases=1
New Generator.pv_load_p6ulv22414_1 conn=wye bus1=p6ulv22414.1 kV=0.12 model=7 kW=0.3546812614765341 kvar=-0.0 Phases=1
New Generator.pv_load_p6ulv22420_1 conn=wye bus1=p6ulv22420.1 kV=0.12 model=7 kW=0.06913295382476127 kvar=-0.0 Phases=1
New Generator.pv_load_p6ulv22421_1 conn=wye bus1=p6ulv22421.1 kV=0.12 model=7 kW=0.24046284014020394 kvar=-0.0 Phases=1
New Generator.pv_load_p6ulv22424_1 conn=wye bus1=p6ulv22424.1 kV=0.12 model=7 kW=0.08115594554437497 kvar=-0.0 Phases=1
New Generator.pv_load_p6ulv22424_2 conn=wye bus1=p6ulv22424.2 kV=0.12 model=7 kW=0.08115594554437497 kvar=-0.0 Phases=1
New Generator.pv_load_p6ulv22426_2 conn=wye bus1=p6ulv22426.2 kV=0.12 model=7 kW=0.23144559635049367 kvar=-0.0 Phases=1
New Generator.pv_load_p6ulv22429_2 conn=wye bus1=p6ulv22429.2 kV=0.12 model=7 kW=0.12173399346026069 kvar=-0.0 Phases=1
New Generator.pv_load_p6ulv22430_2 conn=wye bus1=p6ulv22430.2 kV=0.12 model=7 kW=0.21791822779196332 kvar=-0.0 Phases=1
New Generator.pv_load_p6ulv22431_1 conn=wye bus1=p6ulv22431.1 kV=0.12 model=7 kW=0.2539887058247694 kvar=-0.0 Phases=1
New Generator.pv_load_p6ulv22431_2 conn=wye bus1=p6ulv22431.2 kV=0.12 model=7 kW=0.2539887058247694 kvar=-0.0 Phases=1
New Generator.pv_load_p6ulv22432_1 conn=wye bus1=p6ulv22432.1 kV=0.12 model=7 kW=0.13375713546727092 kvar=-0.0 Phases=1
New Generator.pv_load_p6ulv22435_2 conn=wye bus1=p6ulv22435.2 kV=0.12 model=7 kW=0.20739811003730133 kvar=-0.0 Phases=1
New Generator.pv_load_p6ulv22437_2 conn=wye bus1=p6ulv22437.2 kV=0.12 model=7 kW=0.33213815200225844 kvar=-0.0 Phases=1
New Generator.pv_load_p6ulv22438_2 conn=wye bus1=p6ulv22438.2 kV=0.12 model=7 kW=0.4658954377569258 kvar=-0.0 Phases=1
New Generator.pv_load_p6ulv22440_2 conn=wye bus1=p6ulv22440.2 kV=0.12 model=7 kW=0.2795375632289485 kvar=-0.0 Phases=1
New Generator.pv_load_p6ulv22444_2 conn=wye bus1=p6ulv22444.2 kV=0.12 model=7 kW=0.2765318152990451 kvar=-0.0 Phases=1
New Generator.pv_load_p6ulv22445_1 conn=wye bus1=p6ulv22445.1 kV=0.12 model=7 kW=0.12624261535511583 kvar=-0.0 Phases=1
New Generator.pv_load_p6ulv22446_1 conn=wye bus1=p6ulv22446.1 kV=0.12 model=7 kW=0.39075173950934017 kvar=-0.0 Phases=1
New Generator.pv_load_p6ulv22447_1 conn=wye bus1=p6ulv22447.1 kV=0.12 model=7 kW=0.15479752126399138 kvar=-0.0 Phases=1
New Generator.pv_load_p6ulv22451_2 conn=wye bus1=p6ulv22451.2 kV=0.12 model=7 kW=0.15479752126399138 kvar=-0.0 Phases=1
New Generator.pv_load_p6ulv22453_2 conn=wye bus1=p6ulv22453.2 kV=0.12 model=7 kW=0.1923693703877842 kvar=-0.0 Phases=1
New Generator.pv_load_p6ulv22455_2 conn=wye bus1=p6ulv22455.2 kV=0.12 model=7 kW=0.13676288339717432 kvar=-0.0 Phases=1
New Generator.pv_load_p6ulv22457_1 conn=wye bus1=p6ulv22457.1 kV=0.12 model=7 kW=0.11722537156540556 kvar=-0.0 Phases=1
New Generator.pv_load_p6ulv22462_1 conn=wye bus1=p6ulv22462.1 kV=0.12 model=7 kW=0.10369935559344366 kvar=-0.0 Phases=1
New Generator.pv_load_p6ulv22463_1 conn=wye bus1=p6ulv22463.1 kV=0.12 model=7 kW=0.2554915797897211 kvar=-0.0 Phases=1
New Generator.pv_load_p6ulv22464_2 conn=wye bus1=p6ulv22464.2 kV=0.12 model=7 kW=0.4553753200022639 kvar=-0.0 Phases=1
New Generator.pv_load_p6ulv22465_2 conn=wye bus1=p6ulv22465.2 kV=0.12 model=7 kW=0.21190673193215645 kvar=-0.0 Phases=1
New Generator.pv_load_p6ulv22467_2 conn=wye bus1=p6ulv22467.2 kV=0.12 model=7 kW=0.10670510352334708 kvar=-0.0 Phases=1
New Generator.pv_load_p6ulv22471_1 conn=wye bus1=p6ulv22471.1 kV=0.12 model=7 kW=0.2043923621073979 kvar=-0.0 Phases=1
New Generator.pv_load_p6ulv22471_2 conn=wye bus1=p6ulv22471.2 kV=0.12 model=7 kW=0.2043923621073979 kvar=-0.0 Phases=1
New Generator.pv_load_p6ulv22472_1 conn=wye bus1=p6ulv22472.1 kV=0.12 model=7 kW=0.46890118568682926 kvar=-0.0 Phases=1
New Generator.pv_load_p6ulv22472_2 conn=wye bus1=p6ulv22472.2 kV=0.12 model=7 kW=0.46890118568682926 kvar=-0.0 Phases=1
New Generator.pv_load_p6ulv22473_1 conn=wye bus1=p6ulv22473.1 kV=0.12 model=7 kW=0.2449714620350591 kvar=-0.0 Phases=1
New Generator.pv_load_p6ulv22474_2 conn=wye bus1=p6ulv22474.2 kV=0.12 model=7 kW=0.15479752126399138 kvar=-0.0 Phases=1
New Generator.pv_load_p6ulv22476_2 conn=wye bus1=p6ulv22476.2 kV=0.12 model=7 kW=0.41028910105371247 kvar=-0.0 Phases=1
New Generator.pv_load_p6ulv22480_1 conn=wye bus1=p6ulv22480.1 kV=0.12 model=7 kW=0.31861228631769306 kvar=-0.0 Phases=1
New Generator.pv_load_p6ulv22483_1 conn=wye bus1=p6ulv22483.1 kV=0.12 model=7 kW=0.31109791649293445 kvar=-0.0 Phases=1
New Generator.pv_load_p6ulv22484_2 conn=wye bus1=p6ulv22484.2 kV=0.12 model=7 kW=0.27352606736914165 kvar=-0.0 Phases=1
New Generator.pv_load_p6ulv22485_1 conn=wye bus1=p6ulv22485.1 kV=0.12 model=7 kW=0.07514444968456813 kvar=-0.0 Phases=1
New Generator.pv_load_p6ulv22486_2 conn=wye bus1=p6ulv22486.2 kV=0.12 model=7 kW=0.07815019761447155 kvar=-0.0 Phases=1
New Generator.pv_load_p6ulv22488_1 conn=wye bus1=p6ulv22488.1 kV=0.12 model=7 kW=0.33664677389711356 kvar=-0.0 Phases=1
New Generator.pv_load_p6ulv22490_1 conn=wye bus1=p6ulv22490.1 kV=0.12 model=7 kW=0.3005777987382725 kvar=-0.0 Phases=1
New Generator.pv_load_p6ulv22493_2 conn=wye bus1=p6ulv22493.2 kV=0.12 model=7 kW=0.21942110175691504 kvar=-0.0 Phases=1
New Generator.pv_load_p6ulv22494_1 conn=wye bus1=p6ulv22494.1 kV=0.12 model=7 kW=0.4869356732662498 kvar=-0.0 Phases=1
New Generator.pv_load_p6ulv22499_2 conn=wye bus1=p6ulv22499.2 kV=0.12 model=7 kW=0.30358354666817594 kvar=-0.0 Phases=1
New Generator.pv_load_p6ulv22501_1 conn=wye bus1=p6ulv22501.1 kV=0.12 model=7 kW=0.1803463786681705 kvar=-0.0 Phases=1
New Generator.pv_load_p6ulv22504_1 conn=wye bus1=p6ulv22504.1 kV=0.12 model=7 kW=0.12624261535511583 kvar=-0.0 Phases=1
New Generator.pv_load_p6ulv22505_1 conn=wye bus1=p6ulv22505.1 kV=0.12 model=7 kW=0.19687799228263936 kvar=-0.0 Phases=1
New Generator.pv_load_p6ulv22506_1 conn=wye bus1=p6ulv22506.1 kV=0.12 model=7 kW=0.2584973277196246 kvar=-0.0 Phases=1
New Generator.pv_load_p6ulv22513_2 conn=wye bus1=p6ulv22513.2 kV=0.12 model=7 kW=0.3261266561424516 kvar=-0.0 Phases=1
New Generator.pv_load_p6ulv22515_2 conn=wye bus1=p6ulv22515.2 kV=0.12 model=7 kW=0.16231189108874994 kvar=-0.0 Phases=1
New Generator.pv_load_p6ulv22520_2 conn=wye bus1=p6ulv22520.2 kV=0.12 model=7 kW=0.4132948489836159 kvar=-0.0 Phases=1
New Generator.pv_load_p6ulv22521_2 conn=wye bus1=p6ulv22521.2 kV=0.12 model=7 kW=0.26300594961447965 kvar=-0.0 Phases=1
New Generator.pv_load_p6ulv22522_2 conn=wye bus1=p6ulv22522.2 kV=0.12 model=7 kW=0.14878602540418454 kvar=-0.0 Phases=1
New Generator.pv_load_p6ulv22523_1 conn=wye bus1=p6ulv22523.1 kV=0.12 model=7 kW=0.3050864206331276 kvar=-0.0 Phases=1
New Generator.pv_load_p6ulv22524_1 conn=wye bus1=p6ulv22524.1 kV=0.12 model=7 kW=0.21791822779196332 kvar=-0.0 Phases=1
New Generator.pv_load_p6ulv22526_2 conn=wye bus1=p6ulv22526.2 kV=0.12 model=7 kW=0.17433488280836365 kvar=-0.0 Phases=1
New Generator.pv_load_p6ulv22528_1 conn=wye bus1=p6ulv22528.1 kV=0.12 model=7 kW=0.26450882357943134 kvar=-0.0 Phases=1
New Generator.pv_load_p6ulv22531_1 conn=wye bus1=p6ulv22531.1 kV=0.12 model=7 kW=0.0976878597336368 kvar=-0.0 Phases=1
New Generator.pv_load_p6ulv22533_2 conn=wye bus1=p6ulv22533.2 kV=0.12 model=7 kW=0.16231189108874994 kvar=-0.0 Phases=1
New Generator.pv_load_p6ulv22536_1 conn=wye bus1=p6ulv22536.1 kV=0.12 model=7 kW=0.5260118992289593 kvar=-0.0 Phases=1
New Generator.pv_load_p6ulv22536_2 conn=wye bus1=p6ulv22536.2 kV=0.12 model=7 kW=0.5260118992289593 kvar=-0.0 Phases=1
New Generator.pv_load_p6ulv22538_2 conn=wye bus1=p6ulv22538.2 kV=0.12 model=7 kW=0.17734063073826706 kvar=-0.0 Phases=1
New Generator.pv_load_p6ulv22540_1 conn=wye bus1=p6ulv22540.1 kV=0.12 model=7 kW=0.21340960589710817 kvar=-0.0 Phases=1
New Generator.pv_load_p6ulv22542_1 conn=wye bus1=p6ulv22542.1 kV=0.12 model=7 kW=0.27352606736914165 kvar=-0.0 Phases=1
New Generator.pv_load_p6ulv22546_1 conn=wye bus1=p6ulv22546.1 kV=0.12 model=7 kW=0.12173399346026069 kvar=-0.0 Phases=1
New Generator.pv_load_p6ulv22547_2 conn=wye bus1=p6ulv22547.2 kV=0.12 model=7 kW=0.15329464729903966 kvar=-0.0 Phases=1
New Generator.pv_load_p6ulv22552_2 conn=wye bus1=p6ulv22552.2 kV=0.12 model=7 kW=0.3171094123527413 kvar=-0.0 Phases=1
New Generator.pv_load_p6ulv22557_1 conn=wye bus1=p6ulv22557.1 kV=0.12 model=7 kW=0.3697100011260513 kvar=-0.0 Phases=1
New Generator.pv_load_p6ulv22564_1 conn=wye bus1=p6ulv22564.1 kV=0.12 model=7 kW=0.23745709221030054 kvar=-0.0 Phases=1
New Generator.pv_load_p6ulv22565_1 conn=wye bus1=p6ulv22565.1 kV=0.12 model=7 kW=0.10369935559344366 kvar=-0.0 Phases=1
New Generator.pv_load_p6ulv22566_2 conn=wye bus1=p6ulv22566.2 kV=0.12 model=7 kW=0.2600002016845762 kvar=-0.0 Phases=1
New Generator.pv_load_p6ulv22567_1 conn=wye bus1=p6ulv22567.1 kV=0.12 model=7 kW=0.4193063448434227 kvar=-0.0 Phases=1
New Generator.pv_load_p6ulv22568_1 conn=wye bus1=p6ulv22568.1 kV=0.12 model=7 kW=0.12924851357241576 kvar=-0.0 Phases=1
New Generator.pv_load_p6ulv22568_2 conn=wye bus1=p6ulv22568.2 kV=0.12 model=7 kW=0.12924851357241576 kvar=-0.0 Phases=1
New Generator.pv_load_p6ulv22574_1 conn=wye bus1=p6ulv22574.1 kV=0.12 model=7 kW=0.22392972365177016 kvar=-0.0 Phases=1
New Generator.pv_load_p6ulv22576_2 conn=wye bus1=p6ulv22576.2 kV=0.12 model=7 kW=0.08716759169157832 kvar=-0.0 Phases=1
New Generator.pv_load_p6ulv23361_1 conn=wye bus1=p6ulv23361.1 kV=0.12 model=7 kW=0.31109791649293445 kvar=-0.0 Phases=1
New Generator.pv_load_p6ulv23363_1 conn=wye bus1=p6ulv23363.1 kV=0.12 model=7 kW=0.18936362245788077 kvar=-0.0 Phases=1
New Generator.pv_load_p6ulv23366_1 conn=wye bus1=p6ulv23366.1 kV=0.12 model=7 kW=0.18936362245788077 kvar=-0.0 Phases=1
New Generator.pv_load_p6ulv23367_1 conn=wye bus1=p6ulv23367.1 kV=0.12 model=7 kW=0.4208092188083745 kvar=-0.0 Phases=1
New Generator.pv_load_p6ulv23368_1 conn=wye bus1=p6ulv23368.1 kV=0.12 model=7 kW=0.19537511831768767 kvar=-0.0 Phases=1
New Generator.pv_load_p6ulv23372_2 conn=wye bus1=p6ulv23372.2 kV=0.12 model=7 kW=0.18936362245788077 kvar=-0.0 Phases=1
New Generator.pv_load_p6ulv23380_2 conn=wye bus1=p6ulv23380.2 kV=0.12 model=7 kW=0.09317908755138515 kvar=-0.0 Phases=1
New Generator.pv_load_p6ulv23386_2 conn=wye bus1=p6ulv23386.2 kV=0.12 model=7 kW=0.14427740350932938 kvar=-0.0 Phases=1
New Generator.pv_load_p6ulv23387_2 conn=wye bus1=p6ulv23387.2 kV=0.12 model=7 kW=0.33664677389711356 kvar=-0.0 Phases=1
New Generator.pv_load_p6ulv23390_2 conn=wye bus1=p6ulv23390.2 kV=0.12 model=7 kW=0.3005777987382725 kvar=-0.0 Phases=1
New Generator.pv_load_p6ulv23396_1 conn=wye bus1=p6ulv23396.1 kV=0.12 model=7 kW=0.36820712716109955 kvar=-0.0 Phases=1
New Generator.pv_load_p6ulv23414_1 conn=wye bus1=p6ulv23414.1 kV=0.12 model=7 kW=0.2584973277196246 kvar=-0.0 Phases=1
New Generator.pv_load_p6ulv23419_2 conn=wye bus1=p6ulv23419.2 kV=0.12 model=7 kW=0.35918988337138924 kvar=-0.0 Phases=1
New Generator.pv_load_p6ulv23432_1 conn=wye bus1=p6ulv23432.1 kV=0.12 model=7 kW=0.16231189108874994 kvar=-0.0 Phases=1
New Generator.pv_load_p6ulv23432_2 conn=wye bus1=p6ulv23432.2 kV=0.12 model=7 kW=0.16231189108874994 kvar=-0.0 Phases=1
