New Load.load_p6ulv975_1 conn=wye bus1=p6ulv975.1 kV=0.12 Vminpu=0.8 Vmaxpu=1.2 model=1 kva=0.80001 pf=1.0 Phases=1
New Load.load_p6ulv975_2 conn=wye bus1=p6ulv975.2 kV=0.12 Vminpu=0.8 Vmaxpu=1.2 model=1 kva=0.80001 pf=1.0 Phases=1
New Load.load_p6ulv976_1 conn=wye bus1=p6ulv976.1 kV=0.12 Vminpu=0.8 Vmaxpu=1.2 model=1 kva=3.15003 pf=1.0 Phases=1
New Load.load_p6ulv976_2 conn=wye bus1=p6ulv976.2 kV=0.12 Vminpu=0.8 Vmaxpu=1.2 model=1 kva=3.15003 pf=1.0 Phases=1
New Load.load_p6ulv977_2 conn=wye bus1=p6ulv977.2 kV=0.12 Vminpu=0.8 Vmaxpu=1.2 model=1 kva=0.580005 pf=1.0 Phases=1
New Load.load_p6ulv978_1 conn=wye bus1=p6ulv978.1 kV=0.12 Vminpu=0.8 Vmaxpu=1.2 model=1 kva=0.80001 pf=1.0 Phases=1
New Load.load_p6ulv978_2 conn=wye bus1=p6ulv978.2 kV=0.12 Vminpu=0.8 Vmaxpu=1.2 model=1 kva=0.80001 pf=1.0 Phases=1
New Load.load_p6ulv979_1 conn=wye bus1=p6ulv979.1 kV=0.12 Vminpu=0.8 Vmaxpu=1.2 model=1 kva=1.665015 pf=1.0 Phases=1
New Load.load_p6ulv979_2 conn=wye bus1=p6ulv979.2 kV=0.12 Vminpu=0.8 Vmaxpu=1.2 model=1 kva=1.665015 pf=1.0 Phases=1
New Load.load_p6ulv5744_2 conn=wye bus1=p6ulv5744.2 kV=0.12 Vminpu=0.8 Vmaxpu=1.2 model=1 kva=0.2400025 pf=1.0 Phases=1
New Load.load_p6ulv5745_1 conn=wye bus1=p6ulv5745.1 kV=0.12 Vminpu=0.8 Vmaxpu=1.2 model=1 kva=1.545015 pf=1.0 Phases=1
New Load.load_p6ulv5746_1 conn=wye bus1=p6ulv5746.1 kV=0.12 Vminpu=0.8 Vmaxpu=1.2 model=1 kva=1.530015 pf=1.0 Phases=1
New Load.load_p6ulv5746_2 conn=wye bus1=p6ulv5746.2 kV=0.12 Vminpu=0.8 Vmaxpu=1.2 model=1 kva=1.530015 pf=1.0 Phases=1
New Load.load_p6ulv5747_1 conn=wye bus1=p6ulv5747.1 kV=0.12 Vminpu=0.8 Vmaxpu=1.2 model=1 kva=2.08502 pf=1.0 Phases=1
New Load.load_p6ulv5747_2 conn=wye bus1=p6ulv5747.2 kV=0.12 Vminpu=0.8 Vmaxpu=1.2 model=1 kva=2.08502 pf=1.0 Phases=1
New Load.load_p6ulv5748_1 conn=wye bus1=p6ulv5748.1 kV=0.12 Vminpu=0.8 Vmaxpu=1.2 model=1 kva=0.97001 pf=1.0 Phases=1
New Load.load_p6ulv5748_2 conn=wye bus1=p6ulv5748.2 kV=0.12 Vminpu=0.8 Vmaxpu=1.2 model=1 kva=0.97001 pf=1.0 Phases=1
New Load.load_p6ulv5749_1 conn=wye bus1=p6ulv5749.1 kV=0.12 Vminpu=0.8 Vmaxpu=1.2 model=1 kva=1.13001 pf=1.0 Phases=1
New Load.load_p6ulv5750_1 conn=wye bus1=p6ulv5750.1 kV=0.12 Vminpu=0.8 Vmaxpu=1.2 model=1 kva=1.77502 pf=1.0 Phases=1
New Load.load_p6ulv5750_2 conn=wye bus1=p6ulv5750.2 kV=0.12 Vminpu=0.8 Vmaxpu=1.2 model=1 kva=1.77502 pf=1.0 Phases=1
New Load.load_p6ulv5751_1 conn=wye bus1=p6ulv5751.1 kV=0.12 Vminpu=0.8 Vmaxpu=1.2 model=1 kva=0.555005 pf=1.0 Phases=1
New Load.load_p6ulv5752_2 conn=wye bus1=p6ulv5752.2 kV=0.12 Vminpu=0.8 Vmaxpu=1.2 model=1 kva=1.20001 pf=1.0 Phases=1
New Load.load_p6ulv5754_1 conn=wye bus1=p6ulv5754.1 kV=0.12 Vminpu=0.8 Vmaxpu=1.2 model=1 kva=1.545015 pf=1.0 Phases=1
New Load.load_p6ulv5755_1 conn=wye bus1=p6ulv5755.1 kV=0.12 Vminpu=0.8 Vmaxpu=1.2 model=1 kva=0.95001 pf=1.0 Phases=1
New Load.load_p6ulv5755_2 conn=wye bus1=p6ulv5755.2 kV=0.12 Vminpu=0.8 Vmaxpu=1.2 model=1 kva=0.95001 pf=1.0 Phases=1
New Load.load_p6ulv5756_1 conn=wye bus1=p6ulv5756.1 kV=0.12 Vminpu=0.8 Vmaxpu=1.2 model=1 kva=1.20001 pf=1.0 Phases=1
New Load.load_p6ulv5756_2 conn=wye bus1=p6ulv5756.2 kV=0.12 Vminpu=0.8 Vmaxpu=1.2 model=1 kva=1.20001 pf=1.0 Phases=1
New Load.load_p6ulv5757_1 conn=wye bus1=p6ulv5757.1 kV=0.12 Vminpu=0.8 Vmaxpu=1.2 model=1 kva=1.23501 pf=1.0 Phases=1
New Load.load_p6ulv5758_1 conn=wye bus1=p6ulv5758.1 kV=0.12 Vminpu=0.8 Vmaxpu=1.2 model=1 kva=1.325015 pf=1.0 Phases=1
New Load.load_p6ulv5758_2 conn=wye bus1=p6ulv5758.2 kV=0.12 Vminpu=0.8 Vmaxpu=1.2 model=1 kva=1.325015 pf=1.0 Phases=1
New Load.load_p6ulv5759_1 conn=wye bus1=p6ulv5759.1 kV=0.12 Vminpu=0.8 Vmaxpu=1.2 model=1 kva=1.18001 pf=1.0 Phases=1
New Load.load_p6ulv5759_2 conn=wye bus1=p6ulv5759.2 kV=0.12 Vminpu=0.8 Vmaxpu=1.2 model=1 kva=1.18001 pf=1.0 Phases=1
New Load.load_p6ulv5760_1 conn=wye bus1=p6ulv5760.1 kV=0.12 Vminpu=0.8 Vmaxpu=1.2 model=1 kva=0.6550050000000001 pf=1.0 Phases=1
New Load.load_p6ulv5761_1 conn=wye bus1=p6ulv5761.1 kV=0.12 Vminpu=0.8 Vmaxpu=1.2 model=1 kva=1.260015 pf=1.0 Phases=1
New Load.load_p6ulv5762_2 conn=wye bus1=p6ulv5762.2 kV=0.12 Vminpu=0.8 Vmaxpu=1.2 model=1 kva=1.03501 pf=1.0 Phases=1
New Load.load_p6ulv5763_2 conn=wye bus1=p6ulv5763.2 kV=0.12 Vminpu=0.8 Vmaxpu=1.2 model=1 kva=0.84501 pf=1.0 Phases=1
New Load.load_p6ulv5764_1 conn=wye bus1=p6ulv5764.1 kV=0.12 Vminpu=0.8 Vmaxpu=1.2 model=1 kva=1.355015 pf=1.0 Phases=1
New Load.load_p6ulv5765_1 conn=wye bus1=p6ulv5765.1 kV=0.12 Vminpu=0.8 Vmaxpu=1.2 model=1 kva=1.10001 pf=1.0 Phases=1
New Load.load_p6ulv5765_2 conn=wye bus1=p6ulv5765.2 kV=0.12 Vminpu=0.8 Vmaxpu=1.2 model=1 kva=1.10001 pf=1.0 Phases=1
New Load.load_p6ulv5766_1 conn=wye bus1=p6ulv5766.1 kV=0.12 Vminpu=0.8 Vmaxpu=1.2 model=1 kva=0.4250045 pf=1.0 Phases=1
New Load.load_p6ulv5766_2 conn=wye bus1=p6ulv5766.2 kV=0.12 Vminpu=0.8 Vmaxpu=1.2 model=1 kva=0.4250045 pf=1.0 Phases=1
New Load.load_p6ulv5767_1 conn=wye bus1=p6ulv5767.1 kV=0.12 Vminpu=0.8 Vmaxpu=1.2 model=1 kva=0.76501 pf=1.0 Phases=1
New Load.load_p6ulv5767_2 conn=wye bus1=p6ulv5767.2 kV=0.12 Vminpu=0.8 Vmaxpu=1.2 model=1 kva=0.76501 pf=1.0 Phases=1
New Load.load_p6ulv5768_1 conn=wye bus1=p6ulv5768.1 kV=0.12 Vminpu=0.8 Vmaxpu=1.2 model=1 kva=0.595005 pf=1.0 Phases=1
New Load.load_p6ulv5768_2 conn=wye bus1=p6ulv5768.2 kV=0.12 Vminpu=0.8 Vmaxpu=1.2 model=1 kva=0.595005 pf=1.0 Phases=1
New Load.load_p6ulv5769_1 conn=wye bus1=p6ulv5769.1 kV=0.12 Vminpu=0.8 Vmaxpu=1.2 model=1 kva=1.03501 pf=1.0 Phases=1
New Load.load_p6ulv5769_2 conn=wye bus1=p6ulv5769.2 kV=0.12 Vminpu=0.8 Vmaxpu=1.2 model=1 kva=1.03501 pf=1.0 Phases=1
New Load.load_p6ulv5770_1 conn=wye bus1=p6ulv5770.1 kV=0.12 Vminpu=0.8 Vmaxpu=1.2 model=1 kva=1.01001 pf=1.0 Phases=1
New Load.load_p6ulv5770_2 conn=wye bus1=p6ulv5770.2 kV=0.12 Vminpu=0.8 Vmaxpu=1.2 model=1 kva=1.01001 pf=1.0 Phases=1
New Load.load_p6ulv5771_1 conn=wye bus1=p6ulv5771.1 kV=0.12 Vminpu=0.8 Vmaxpu=1.2 model=1 kva=1.89002 pf=1.0 Phases=1
New Load.load_p6ulv5771_2 conn=wye bus1=p6ulv5771.2 kV=0.12 Vminpu=0.8 Vmaxpu=1.2 model=1 kva=1.89002 pf=1.0 Phases=1
New Load.load_p6ulv5773_1 conn=wye bus1=p6ulv5773.1 kV=0.12 Vminpu=0.8 Vmaxpu=1.2 model=1 kva=0.4550045 pf=1.0 Phases=1
New Load.load_p6ulv5773_2 conn=wye bus1=p6ulv5773.2 kV=0.12 Vminpu=0.8 Vmaxpu=1.2 model=1 kva=0.4550045 pf=1.0 Phases=1
New Load.load_p6ulv5774_1 conn=wye bus1=p6ulv5774.1 kV=0.12 Vminpu=0.8 Vmaxpu=1.2 model=1 kva=1.02501 pf=1.0 Phases=1
New Load.load_p6ulv5775_1 conn=wye bus1=p6ulv5775.1 kV=0.12 Vminpu=0.8 Vmaxpu=1.2 model=1 kva=0.710005 pf=1.0 Phases=1
New Load.load_p6ulv5775_2 conn=wye bus1=p6ulv5775.2 kV=0.12 Vminpu=0.8 Vmaxpu=1.2 model=1 kva=0.710005 pf=1.0 Phases=1
New Load.load_p6ulv5776_1 conn=wye bus1=p6ulv5776.1 kV=0.12 Vminpu=0.8 Vmaxpu=1.2 model=1 kva=1.00001 pf=1.0 Phases=1
New Load.load_p6ulv5776_2 conn=wye bus1=p6ulv5776.2 kV=0.12 Vminpu=0.8 Vmaxpu=1.2 model=1 kva=1.00001 pf=1.0 Phases=1
New Load.load_p6ulv5777_1 conn=wye bus1=p6ulv5777.1 kV=0.12 Vminpu=0.8 Vmaxpu=1.2 model=1 kva=0.540005 pf=1.0 Phases=1
New Load.load_p6ulv5777_2 conn=wye bus1=p6ulv5777.2 kV=0.12 Vminpu=0.8 Vmaxpu=1.2 model=1 kva=0.540005 pf=1.0 Phases=1
New Load.load_p6ulv5778_1 conn=wye bus1=p6ulv5778.1 kV=0.12 Vminpu=0.8 Vmaxpu=1.2 model=1 kva=0.80001 pf=1.0 Phases=1
New Load.load_p6ulv5778_2 conn=wye bus1=p6ulv5778.2 kV=0.12 Vminpu=0.8 Vmaxpu=1.2 model=1 kva=0.80001 pf=1.0 Phases=1
New Load.load_p6ulv5779_1 conn=wye bus1=p6ulv5779.1 kV=0.12 Vminpu=0.8 Vmaxpu=1.2 model=1 kva=0.745005 pf=1.0 Phases=1
New Load.load_p6ulv5779_2 conn=wye bus1=p6ulv5779.2 kV=0.12 Vminpu=0.8 Vmaxpu=1.2 model=1 kva=0.745005 pf=1.0 Phases=1
New Load.load_p6ulv5780_1 conn=wye bus1=p6ulv5780.1 kV=0.12 Vminpu=0.8 Vmaxpu=1.2 model=1 kva=0.690005 pf=1.0 Phases=1
New Load.load_p6ulv5780_2 conn=wye bus1=p6ulv5780.2 kV=0.12 Vminpu=0.8 Vmaxpu=1.2 model=1 kva=0.690005 pf=1.0 Phases=1
New Load.load_p6ulv5781_1 conn=wye bus1=p6ulv5781.1 kV=0.12 Vminpu=0.8 Vmaxpu=1.2 model=1 kva=0.725005 pf=1.0 Phases=1
New Load.load_p6ulv5781_2 conn=wye bus1=p6ulv5781.2 kV=0.12 Vminpu=0.8 Vmaxpu=1.2 model=1 kva=0.725005 pf=1.0 Phases=1
New Load.load_p6ulv5782_1 conn=wye bus1=p6ulv5782.1 kV=0.12 Vminpu=0.8 Vmaxpu=1.2 model=1 kva=0.385004 pf=1.0 Phases=1
New Load.load_p6ulv5782_2 conn=wye bus1=p6ulv5782.2 kV=0.12 Vminpu=0.8 Vmaxpu=1.2 model=1 kva=0.385004 pf=1.0 Phases=1
New Load.load_p6ulv5783_1 conn=wye bus1=p6ulv5783.1 kV=0.12 Vminpu=0.8 Vmaxpu=1.2 model=1 kva=0.6550050000000001 pf=1.0 Phases=1
New Load.load_p6ulv5784_2 conn=wye bus1=p6ulv5784.2 kV=0.12 Vminpu=0.8 Vmaxpu=1.2 model=1 kva=0.88501 pf=1.0 Phases=1
New Load.load_p6ulv5786_1 conn=wye bus1=p6ulv5786.1 kV=0.12 Vminpu=0.8 Vmaxpu=1.2 model=1 kva=0.550005 pf=1.0 Phases=1
New Load.load_p6ulv5787_1 conn=wye bus1=p6ulv5787.1 kV=0.12 Vminpu=0.8 Vmaxpu=1.2 model=1 kva=0.740005 pf=1.0 Phases=1
New Load.load_p6ulv5787_2 conn=wye bus1=p6ulv5787.2 kV=0.12 Vminpu=0.8 Vmaxpu=1.2 model=1 kva=0.740005 pf=1.0 Phases=1
New Load.load_p6ulv5788_1 conn=wye bus1=p6ulv5788.1 kV=0.12 Vminpu=0.8 Vmaxpu=1.2 model=1 kva=0.515005 pf=1.0 Phases=1
New Load.load_p6ulv5789_1 conn=wye bus1=p6ulv5789.1 kV=0.12 Vminpu=0.8 Vmaxpu=1.2 model=1 kva=0.80001 pf=1.0 Phases=1
New Load.load_p6ulv5789_2 conn=wye bus1=p6ulv5789.2 kV=0.12 Vminpu=0.8 Vmaxpu=1.2 model=1 kva=0.80001 pf=1.0 Phases=1
New Load.load_p6ulv5790_1 conn=wye bus1=p6ulv5790.1 kV=0.12 Vminpu=0.8 Vmaxpu=1.2 model=1 kva=0.98001 pf=1.0 Phases=1
New Load.load_p6ulv5790_2 conn=wye bus1=p6ulv5790.2 kV=0.12 Vminpu=0.8 Vmaxpu=1.2 model=1 kva=0.98001 pf=1.0 Phases=1
New Load.load_p6ulv5791_1 conn=wye bus1=p6ulv5791.1 kV=0.12 Vminpu=0.8 Vmaxpu=1.2 model=1 kva=0.3600035 pf=1.0 Phases=1
New Load.load_p6ulv5791_2 conn=wye bus1=p6ulv5791.2 kV=0.12 Vminpu=0.8 Vmaxpu=1.2 model=1 kva=0.3600035 pf=1.0 Phases=1
New Load.load_p6ulv5792_1 conn=wye bus1=p6ulv5792.1 kV=0.12 Vminpu=0.8 Vmaxpu=1.2 model=1 kva=0.570005 pf=1.0 Phases=1
New Load.load_p6ulv5792_2 conn=wye bus1=p6ulv5792.2 kV=0.12 Vminpu=0.8 Vmaxpu=1.2 model=1 kva=0.570005 pf=1.0 Phases=1
New Load.load_p6ulv5793_1 conn=wye bus1=p6ulv5793.1 kV=0.12 Vminpu=0.8 Vmaxpu=1.2 model=1 kva=0.84001 pf=1.0 Phases=1
New Load.load_p6ulv5793_2 conn=wye bus1=p6ulv5793.2 kV=0.12 Vminpu=0.8 Vmaxpu=1.2 model=1 kva=0.84001 pf=1.0 Phases=1
New Load.load_p6ulv5794_1 conn=wye bus1=p6ulv5794.1 kV=0.12 Vminpu=0.8 Vmaxpu=1.2 model=1 kva=0.77501 pf=1.0 Phases=1
New Load.load_p6ulv5794_2 conn=wye bus1=p6ulv5794.2 kV=0.12 Vminpu=0.8 Vmaxpu=1.2 model=1 kva=0.77501 pf=1.0 Phases=1
New Load.load_p6ulv5795 conn=wye bus1=p6ulv5795.1.2.3 kV=0.48 Vminpu=0.8 Vmaxpu=1.2 model=1 kva=28.120299999999997 pf=1.0 Phases=3
New Load.load_p6ulv5796_1 conn=wye bus1=p6ulv5796.1 kV=0.12 Vminpu=0.8 Vmaxpu=1.2 model=1 kva=1.91502 pf=1.0 Phases=1
New Load.load_p6ulv5796_2 conn=wye bus1=p6ulv5796.2 kV=0.12 Vminpu=0.8 Vmaxpu=1.2 model=1 kva=1.91502 pf=1.0 Phases=1
New Load.load_p6ulv5797_2 conn=wye bus1=p6ulv5797.2 kV=0.12 Vminpu=0.8 Vmaxpu=1.2 model=1 kva=0.545005 pf=1.0 Phases=1
New Load.load_p6ulv5798_1 conn=wye bus1=p6ulv5798.1 kV=0.12 Vminpu=0.8 Vmaxpu=1.2 model=1 kva=1.305015 pf=1.0 Phases=1
New Load.load_p6ulv5798_2 conn=wye bus1=p6ulv5798.2 kV=0.12 Vminpu=0.8 Vmaxpu=1.2 model=1 kva=1.305015 pf=1.0 Phases=1
New Load.load_p6ulv5799_1 conn=wye bus1=p6ulv5799.1 kV=0.12 Vminpu=0.8 Vmaxpu=1.2 model=1 kva=1.360015 pf=1.0 Phases=1
New Load.load_p6ulv5800_1 conn=wye bus1=p6ulv5800.1 kV=0.12 Vminpu=0.8 Vmaxpu=1.2 model=1 kva=0.6600050000000001 pf=1.0 Phases=1
New Load.load_p6ulv5800_2 conn=wye bus1=p6ulv5800.2 kV=0.12 Vminpu=0.8 Vmaxpu=1.2 model=1 kva=0.6600050000000001 pf=1.0 Phases=1
New Load.load_p6ulv5801_1 conn=wye bus1=p6ulv5801.1 kV=0.12 Vminpu=0.8 Vmaxpu=1.2 model=1 kva=1.0600100000000001 pf=1.0 Phases=1
New Load.load_p6ulv5801_2 conn=wye bus1=p6ulv5801.2 kV=0.12 Vminpu=0.8 Vmaxpu=1.2 model=1 kva=1.0600100000000001 pf=1.0 Phases=1
New Load.load_p6ulv5802_1 conn=wye bus1=p6ulv5802.1 kV=0.12 Vminpu=0.8 Vmaxpu=1.2 model=1 kva=0.625005 pf=1.0 Phases=1
New Load.load_p6ulv5802_2 conn=wye bus1=p6ulv5802.2 kV=0.12 Vminpu=0.8 Vmaxpu=1.2 model=1 kva=0.625005 pf=1.0 Phases=1
New Load.load_p6ulv5803_1 conn=wye bus1=p6ulv5803.1 kV=0.12 Vminpu=0.8 Vmaxpu=1.2 model=1 kva=0.630005 pf=1.0 Phases=1
New Load.load_p6ulv5803_2 conn=wye bus1=p6ulv5803.2 kV=0.12 Vminpu=0.8 Vmaxpu=1.2 model=1 kva=0.630005 pf=1.0 Phases=1
New Load.load_p6ulv5804_1 conn=wye bus1=p6ulv5804.1 kV=0.12 Vminpu=0.8 Vmaxpu=1.2 model=1 kva=0.285003 pf=1.0 Phases=1
New Load.load_p6ulv5804_2 conn=wye bus1=p6ulv5804.2 kV=0.12 Vminpu=0.8 Vmaxpu=1.2 model=1 kva=0.285003 pf=1.0 Phases=1
New Load.load_p6ulv5805_1 conn=wye bus1=p6ulv5805.1 kV=0.12 Vminpu=0.8 Vmaxpu=1.2 model=1 kva=0.8600100000000002 pf=1.0 Phases=1
New Load.load_p6ulv5805_2 conn=wye bus1=p6ulv5805.2 kV=0.12 Vminpu=0.8 Vmaxpu=1.2 model=1 kva=0.8600100000000002 pf=1.0 Phases=1
New Load.load_p6ulv5806_1 conn=wye bus1=p6ulv5806.1 kV=0.12 Vminpu=0.8 Vmaxpu=1.2 model=1 kva=0.83001 pf=1.0 Phases=1
New Load.load_p6ulv5806_2 conn=wye bus1=p6ulv5806.2 kV=0.12 Vminpu=0.8 Vmaxpu=1.2 model=1 kva=0.83001 pf=1.0 Phases=1
New Load.load_p6ulv5807_1 conn=wye bus1=p6ulv5807.1 kV=0.12 Vminpu=0.8 Vmaxpu=1.2 model=1 kva=1.21501 pf=1.0 Phases=1
New Load.load_p6ulv5808_2 conn=wye bus1=p6ulv5808.2 kV=0.12 Vminpu=0.8 Vmaxpu=1.2 model=1 kva=0.695005 pf=1.0 Phases=1
New Load.load_p6ulv5809_1 conn=wye bus1=p6ulv5809.1 kV=0.12 Vminpu=0.8 Vmaxpu=1.2 model=1 kva=0.92501 pf=1.0 Phases=1
New Load.load_p6ulv5809_2 conn=wye bus1=p6ulv5809.2 kV=0.12 Vminpu=0.8 Vmaxpu=1.2 model=1 kva=0.92501 pf=1.0 Phases=1
New Load.load_p6ulv5810_1 conn=wye bus1=p6ulv5810.1 kV=0.12 Vminpu=0.8 Vmaxpu=1.2 model=1 kva=1.5350150000000002 pf=1.0 Phases=1
New Load.load_p6ulv5810_2 conn=wye bus1=p6ulv5810.2 kV=0.12 Vminpu=0.8 Vmaxpu=1.2 model=1 kva=1.5350150000000002 pf=1.0 Phases=1
New Load.load_p6ulv5811_1 conn=wye bus1=p6ulv5811.1 kV=0.12 Vminpu=0.8 Vmaxpu=1.2 model=1 kva=0.92501 pf=1.0 Phases=1
New Load.load_p6ulv5811_2 conn=wye bus1=p6ulv5811.2 kV=0.12 Vminpu=0.8 Vmaxpu=1.2 model=1 kva=0.92501 pf=1.0 Phases=1
New Load.load_p6ulv5812_1 conn=wye bus1=p6ulv5812.1 kV=0.12 Vminpu=0.8 Vmaxpu=1.2 model=1 kva=1.04001 pf=1.0 Phases=1
New Load.load_p6ulv5812_2 conn=wye bus1=p6ulv5812.2 kV=0.12 Vminpu=0.8 Vmaxpu=1.2 model=1 kva=1.04001 pf=1.0 Phases=1
New Load.load_p6ulv5813_2 conn=wye bus1=p6ulv5813.2 kV=0.12 Vminpu=0.8 Vmaxpu=1.2 model=1 kva=0.685005 pf=1.0 Phases=1
New Load.load_p6ulv5814_1 conn=wye bus1=p6ulv5814.1 kV=0.12 Vminpu=0.8 Vmaxpu=1.2 model=1 kva=1.10001 pf=1.0 Phases=1
New Load.load_p6ulv5815_1 conn=wye bus1=p6ulv5815.1 kV=0.12 Vminpu=0.8 Vmaxpu=1.2 model=1 kva=0.8700100000000001 pf=1.0 Phases=1
New Load.load_p6ulv5815_2 conn=wye bus1=p6ulv5815.2 kV=0.12 Vminpu=0.8 Vmaxpu=1.2 model=1 kva=0.8700100000000001 pf=1.0 Phases=1
New Load.load_p6ulv5816_1 conn=wye bus1=p6ulv5816.1 kV=0.12 Vminpu=0.8 Vmaxpu=1.2 model=1 kva=1.02001 pf=1.0 Phases=1
New Load.load_p6ulv5817_1 conn=wye bus1=p6ulv5817.1 kV=0.12 Vminpu=0.8 Vmaxpu=1.2 model=1 kva=0.710005 pf=1.0 Phases=1
New Load.load_p6ulv5817_2 conn=wye bus1=p6ulv5817.2 kV=0.12 Vminpu=0.8 Vmaxpu=1.2 model=1 kva=0.710005 pf=1.0 Phases=1
New Load.load_p6ulv5818_1 conn=wye bus1=p6ulv5818.1 kV=0.12 Vminpu=0.8 Vmaxpu=1.2 model=1 kva=1.6500150000000002 pf=1.0 Phases=1
New Load.load_p6ulv5818_2 conn=wye bus1=p6ulv5818.2 kV=0.12 Vminpu=0.8 Vmaxpu=1.2 model=1 kva=1.6500150000000002 pf=1.0 Phases=1
New Load.load_p6ulv5819_1 conn=wye bus1=p6ulv5819.1 kV=0.12 Vminpu=0.8 Vmaxpu=1.2 model=1 kva=0.735005 pf=1.0 Phases=1
New Load.load_p6ulv5819_2 conn=wye bus1=p6ulv5819.2 kV=0.12 Vminpu=0.8 Vmaxpu=1.2 model=1 kva=0.735005 pf=1.0 Phases=1
New Load.load_p6ulv5820_2 conn=wye bus1=p6ulv5820.2 kV=0.12 Vminpu=0.8 Vmaxpu=1.2 model=1 kva=0.545005 pf=1.0 Phases=1
New Load.load_p6ulv5821_1 conn=wye bus1=p6ulv5821.1 kV=0.12 Vminpu=0.8 Vmaxpu=1.2 model=1 kva=0.605005 pf=1.0 Phases=1
New Load.load_p6ulv5822_2 conn=wye bus1=p6ulv5822.2 kV=0.12 Vminpu=0.8 Vmaxpu=1.2 model=1 kva=0.88501 pf=1.0 Phases=1
New Load.load_p6ulv5825_1 conn=wye bus1=p6ulv5825.1 kV=0.12 Vminpu=0.8 Vmaxpu=1.2 model=1 kva=0.615005 pf=1.0 Phases=1
New Load.load_p6ulv5825_2 conn=wye bus1=p6ulv5825.2 kV=0.12 Vminpu=0.8 Vmaxpu=1.2 model=1 kva=0.615005 pf=1.0 Phases=1
New Load.load_p6ulv5826_2 conn=wye bus1=p6ulv5826.2 kV=0.12 Vminpu=0.8 Vmaxpu=1.2 model=1 kva=0.670005 pf=1.0 Phases=1
New Load.load_p6ulv5828_1 conn=wye bus1=p6ulv5828.1 kV=0.12 Vminpu=0.8 Vmaxpu=1.2 model=1 kva=1.09001 pf=1.0 Phases=1
New Load.load_p6ulv5828_2 conn=wye bus1=p6ulv5828.2 kV=0.12 Vminpu=0.8 Vmaxpu=1.2 model=1 kva=1.09001 pf=1.0 Phases=1
New Load.load_p6ulv5829_1 conn=wye bus1=p6ulv5829.1 kV=0.12 Vminpu=0.8 Vmaxpu=1.2 model=1 kva=0.96501 pf=1.0 Phases=1
New Load.load_p6ulv5829_2 conn=wye bus1=p6ulv5829.2 kV=0.12 Vminpu=0.8 Vmaxpu=1.2 model=1 kva=0.96501 pf=1.0 Phases=1
New Load.load_p6ulv5830_1 conn=wye bus1=p6ulv5830.1 kV=0.12 Vminpu=0.8 Vmaxpu=1.2 model=1 kva=0.78001 pf=1.0 Phases=1
New Load.load_p6ulv5830_2 conn=wye bus1=p6ulv5830.2 kV=0.12 Vminpu=0.8 Vmaxpu=1.2 model=1 kva=0.78001 pf=1.0 Phases=1
New Load.load_p6ulv5831_1 conn=wye bus1=p6ulv5831.1 kV=0.12 Vminpu=0.8 Vmaxpu=1.2 model=1 kva=0.88501 pf=1.0 Phases=1
New Load.load_p6ulv5831_2 conn=wye bus1=p6ulv5831.2 kV=0.12 Vminpu=0.8 Vmaxpu=1.2 model=1 kva=0.88501 pf=1.0 Phases=1
New Load.load_p6ulv5832_1 conn=wye bus1=p6ulv5832.1 kV=0.12 Vminpu=0.8 Vmaxpu=1.2 model=1 kva=0.670005 pf=1.0 Phases=1
New Load.load_p6ulv5832_2 conn=wye bus1=p6ulv5832.2 kV=0.12 Vminpu=0.8 Vmaxpu=1.2 model=1 kva=0.670005 pf=1.0 Phases=1
New Load.load_p6ulv5833_1 conn=wye bus1=p6ulv5833.1 kV=0.12 Vminpu=0.8 Vmaxpu=1.2 model=1 kva=0.29500300000000007 pf=1.0 Phases=1
New Load.load_p6ulv5833_2 conn=wye bus1=p6ulv5833.2 kV=0.12 Vminpu=0.8 Vmaxpu=1.2 model=1 kva=0.29500300000000007 pf=1.0 Phases=1
New Load.load_p6ulv5834_1 conn=wye bus1=p6ulv5834.1 kV=0.12 Vminpu=0.8 Vmaxpu=1.2 model=1 kva=0.84501 pf=1.0 Phases=1
New Load.load_p6ulv5834_2 conn=wye bus1=p6ulv5834.2 kV=0.12 Vminpu=0.8 Vmaxpu=1.2 model=1 kva=0.84501 pf=1.0 Phases=1
New Load.load_p6ulv5835_1 conn=wye bus1=p6ulv5835.1 kV=0.12 Vminpu=0.8 Vmaxpu=1.2 model=1 kva=0.84001 pf=1.0 Phases=1
New Load.load_p6ulv5835_2 conn=wye bus1=p6ulv5835.2 kV=0.12 Vminpu=0.8 Vmaxpu=1.2 model=1 kva=0.84001 pf=1.0 Phases=1
New Load.load_p6ulv5836_1 conn=wye bus1=p6ulv5836.1 kV=0.12 Vminpu=0.8 Vmaxpu=1.2 model=1 kva=0.82001 pf=1.0 Phases=1
New Load.load_p6ulv5836_2 conn=wye bus1=p6ulv5836.2 kV=0.12 Vminpu=0.8 Vmaxpu=1.2 model=1 kva=0.82001 pf=1.0 Phases=1
New Load.load_p6ulv5837_1 conn=wye bus1=p6ulv5837.1 kV=0.12 Vminpu=0.8 Vmaxpu=1.2 model=1 kva=1.20001 pf=1.0 Phases=1
New Load.load_p6ulv5837_2 conn=wye bus1=p6ulv5837.2 kV=0.12 Vminpu=0.8 Vmaxpu=1.2 model=1 kva=1.20001 pf=1.0 Phases=1
New Load.load_p6ulv5838_1 conn=wye bus1=p6ulv5838.1 kV=0.12 Vminpu=0.8 Vmaxpu=1.2 model=1 kva=1.20501 pf=1.0 Phases=1
New Load.load_p6ulv5838_2 conn=wye bus1=p6ulv5838.2 kV=0.12 Vminpu=0.8 Vmaxpu=1.2 model=1 kva=1.20501 pf=1.0 Phases=1
New Load.load_p6ulv5839_1 conn=wye bus1=p6ulv5839.1 kV=0.12 Vminpu=0.8 Vmaxpu=1.2 model=1 kva=0.81001 pf=1.0 Phases=1
New Load.load_p6ulv5841_1 conn=wye bus1=p6ulv5841.1 kV=0.12 Vminpu=0.8 Vmaxpu=1.2 model=1 kva=1.285015 pf=1.0 Phases=1
New Load.load_p6ulv5841_2 conn=wye bus1=p6ulv5841.2 kV=0.12 Vminpu=0.8 Vmaxpu=1.2 model=1 kva=1.285015 pf=1.0 Phases=1
New Load.load_p6ulv5842_1 conn=wye bus1=p6ulv5842.1 kV=0.12 Vminpu=0.8 Vmaxpu=1.2 model=1 kva=0.8600100000000002 pf=1.0 Phases=1
New Load.load_p6ulv5842_2 conn=wye bus1=p6ulv5842.2 kV=0.12 Vminpu=0.8 Vmaxpu=1.2 model=1 kva=0.8600100000000002 pf=1.0 Phases=1
New Load.load_p6ulv5843_1 conn=wye bus1=p6ulv5843.1 kV=0.12 Vminpu=0.8 Vmaxpu=1.2 model=1 kva=0.680005 pf=1.0 Phases=1
New Load.load_p6ulv5844_1 conn=wye bus1=p6ulv5844.1 kV=0.12 Vminpu=0.8 Vmaxpu=1.2 model=1 kva=0.76001 pf=1.0 Phases=1
New Load.load_p6ulv5844_2 conn=wye bus1=p6ulv5844.2 kV=0.12 Vminpu=0.8 Vmaxpu=1.2 model=1 kva=0.76001 pf=1.0 Phases=1
New Load.load_p6ulv5845_1 conn=wye bus1=p6ulv5845.1 kV=0.12 Vminpu=0.8 Vmaxpu=1.2 model=1 kva=7.24505 pf=1.0 Phases=1
New Load.load_p6ulv5845_2 conn=wye bus1=p6ulv5845.2 kV=0.12 Vminpu=0.8 Vmaxpu=1.2 model=1 kva=7.24505 pf=1.0 Phases=1
New Load.load_p6ulv5846_1 conn=wye bus1=p6ulv5846.1 kV=0.12 Vminpu=0.8 Vmaxpu=1.2 model=1 kva=0.505005 pf=1.0 Phases=1
New Load.load_p6ulv5846_2 conn=wye bus1=p6ulv5846.2 kV=0.12 Vminpu=0.8 Vmaxpu=1.2 model=1 kva=0.505005 pf=1.0 Phases=1
New Load.load_p6ulv5847_1 conn=wye bus1=p6ulv5847.1 kV=0.12 Vminpu=0.8 Vmaxpu=1.2 model=1 kva=0.390004 pf=1.0 Phases=1
New Load.load_p6ulv5848_2 conn=wye bus1=p6ulv5848.2 kV=0.12 Vminpu=0.8 Vmaxpu=1.2 model=1 kva=0.5300050000000001 pf=1.0 Phases=1
New Load.load_p6ulv5849_2 conn=wye bus1=p6ulv5849.2 kV=0.12 Vminpu=0.8 Vmaxpu=1.2 model=1 kva=1.02001 pf=1.0 Phases=1
New Load.load_p6ulv5851_1 conn=wye bus1=p6ulv5851.1 kV=0.12 Vminpu=0.8 Vmaxpu=1.2 model=1 kva=2.05002 pf=1.0 Phases=1
New Load.load_p6ulv5852_2 conn=wye bus1=p6ulv5852.2 kV=0.12 Vminpu=0.8 Vmaxpu=1.2 model=1 kva=1.495015 pf=1.0 Phases=1
New Load.load_p6ulv5854_1 conn=wye bus1=p6ulv5854.1 kV=0.12 Vminpu=0.8 Vmaxpu=1.2 model=1 kva=1.12001 pf=1.0 Phases=1
New Load.load_p6ulv5854_2 conn=wye bus1=p6ulv5854.2 kV=0.12 Vminpu=0.8 Vmaxpu=1.2 model=1 kva=1.12001 pf=1.0 Phases=1
New Load.load_p6ulv5855_1 conn=wye bus1=p6ulv5855.1 kV=0.12 Vminpu=0.8 Vmaxpu=1.2 model=1 kva=0.80501 pf=1.0 Phases=1
New Load.load_p6ulv5855_2 conn=wye bus1=p6ulv5855.2 kV=0.12 Vminpu=0.8 Vmaxpu=1.2 model=1 kva=0.80501 pf=1.0 Phases=1
New Load.load_p6ulv5856_2 conn=wye bus1=p6ulv5856.2 kV=0.12 Vminpu=0.8 Vmaxpu=1.2 model=1 kva=1.16501 pf=1.0 Phases=1
New Load.load_p6ulv5857_1 conn=wye bus1=p6ulv5857.1 kV=0.12 Vminpu=0.8 Vmaxpu=1.2 model=1 kva=1.02001 pf=1.0 Phases=1
New Load.load_p6ulv5857_2 conn=wye bus1=p6ulv5857.2 kV=0.12 Vminpu=0.8 Vmaxpu=1.2 model=1 kva=1.02001 pf=1.0 Phases=1
New Load.load_p6ulv5858_1 conn=wye bus1=p6ulv5858.1 kV=0.12 Vminpu=0.8 Vmaxpu=1.2 model=1 kva=0.94001 pf=1.0 Phases=1
New Load.load_p6ulv5858_2 conn=wye bus1=p6ulv5858.2 kV=0.12 Vminpu=0.8 Vmaxpu=1.2 model=1 kva=0.94001 pf=1.0 Phases=1
New Load.load_p6ulv5859_1 conn=wye bus1=p6ulv5859.1 kV=0.12 Vminpu=0.8 Vmaxpu=1.2 model=1 kva=1.01001 pf=1.0 Phases=1
New Load.load_p6ulv5859_2 conn=wye bus1=p6ulv5859.2 kV=0.12 Vminpu=0.8 Vmaxpu=1.2 model=1 kva=1.01001 pf=1.0 Phases=1
New Load.load_p6ulv5860_1 conn=wye bus1=p6ulv5860.1 kV=0.12 Vminpu=0.8 Vmaxpu=1.2 model=1 kva=0.89001 pf=1.0 Phases=1
New Load.load_p6ulv5861_1 conn=wye bus1=p6ulv5861.1 kV=0.12 Vminpu=0.8 Vmaxpu=1.2 model=1 kva=0.94001 pf=1.0 Phases=1
New Load.load_p6ulv5861_2 conn=wye bus1=p6ulv5861.2 kV=0.12 Vminpu=0.8 Vmaxpu=1.2 model=1 kva=0.94001 pf=1.0 Phases=1
New Load.load_p6ulv5862_1 conn=wye bus1=p6ulv5862.1 kV=0.12 Vminpu=0.8 Vmaxpu=1.2 model=1 kva=0.83001 pf=1.0 Phases=1
New Load.load_p6ulv5862_2 conn=wye bus1=p6ulv5862.2 kV=0.12 Vminpu=0.8 Vmaxpu=1.2 model=1 kva=0.83001 pf=1.0 Phases=1
New Load.load_p6ulv5863_2 conn=wye bus1=p6ulv5863.2 kV=0.12 Vminpu=0.8 Vmaxpu=1.2 model=1 kva=1.545015 pf=1.0 Phases=1
New Load.load_p6ulv5864_1 conn=wye bus1=p6ulv5864.1 kV=0.12 Vminpu=0.8 Vmaxpu=1.2 model=1 kva=0.75001 pf=1.0 Phases=1
New Load.load_p6ulv5865_1 conn=wye bus1=p6ulv5865.1 kV=0.12 Vminpu=0.8 Vmaxpu=1.2 model=1 kva=0.9950100000000001 pf=1.0 Phases=1
New Load.load_p6ulv5865_2 conn=wye bus1=p6ulv5865.2 kV=0.12 Vminpu=0.8 Vmaxpu=1.2 model=1 kva=0.9950100000000001 pf=1.0 Phases=1
New Load.load_p6ulv5866_2 conn=wye bus1=p6ulv5866.2 kV=0.12 Vminpu=0.8 Vmaxpu=1.2 model=1 kva=1.04001 pf=1.0 Phases=1
New Load.load_p6ulv5869_1 conn=wye bus1=p6ulv5869.1 kV=0.12 Vminpu=0.8 Vmaxpu=1.2 model=1 kva=0.715005 pf=1.0 Phases=1
New Load.load_p6ulv5869_2 conn=wye bus1=p6ulv5869.2 kV=0.12 Vminpu=0.8 Vmaxpu=1.2 model=1 kva=0.715005 pf=1.0 Phases=1
New Load.load_p6ulv5871_1 conn=wye bus1=p6ulv5871.1 kV=0.12 Vminpu=0.8 Vmaxpu=1.2 model=1 kva=1.09501 pf=1.0 Phases=1
New Load.load_p6ulv5871_2 conn=wye bus1=p6ulv5871.2 kV=0.12 Vminpu=0.8 Vmaxpu=1.2 model=1 kva=1.09501 pf=1.0 Phases=1
New Load.load_p6ulv5872_1 conn=wye bus1=p6ulv5872.1 kV=0.12 Vminpu=0.8 Vmaxpu=1.2 model=1 kva=0.96001 pf=1.0 Phases=1
New Load.load_p6ulv5872_2 conn=wye bus1=p6ulv5872.2 kV=0.12 Vminpu=0.8 Vmaxpu=1.2 model=1 kva=0.96001 pf=1.0 Phases=1
New Load.load_p6ulv5873_1 conn=wye bus1=p6ulv5873.1 kV=0.12 Vminpu=0.8 Vmaxpu=1.2 model=1 kva=0.95501 pf=1.0 Phases=1
New Load.load_p6ulv5873_2 conn=wye bus1=p6ulv5873.2 kV=0.12 Vminpu=0.8 Vmaxpu=1.2 model=1 kva=0.95501 pf=1.0 Phases=1
New Load.load_p6ulv5874_1 conn=wye bus1=p6ulv5874.1 kV=0.12 Vminpu=0.8 Vmaxpu=1.2 model=1 kva=1.12001 pf=1.0 Phases=1
New Load.load_p6ulv5874_2 conn=wye bus1=p6ulv5874.2 kV=0.12 Vminpu=0.8 Vmaxpu=1.2 model=1 kva=1.12001 pf=1.0 Phases=1
New Load.load_p6ulv5875_1 conn=wye bus1=p6ulv5875.1 kV=0.12 Vminpu=0.8 Vmaxpu=1.2 model=1 kva=1.565015 pf=1.0 Phases=1
New Load.load_p6ulv5875_2 conn=wye bus1=p6ulv5875.2 kV=0.12 Vminpu=0.8 Vmaxpu=1.2 model=1 kva=1.565015 pf=1.0 Phases=1
New Load.load_p6ulv5876_1 conn=wye bus1=p6ulv5876.1 kV=0.12 Vminpu=0.8 Vmaxpu=1.2 model=1 kva=1.665015 pf=1.0 Phases=1
New Load.load_p6ulv5876_2 conn=wye bus1=p6ulv5876.2 kV=0.12 Vminpu=0.8 Vmaxpu=1.2 model=1 kva=1.665015 pf=1.0 Phases=1
New Load.load_p6ulv5877_2 conn=wye bus1=p6ulv5877.2 kV=0.12 Vminpu=0.8 Vmaxpu=1.2 model=1 kva=1.420015 pf=1.0 Phases=1
New Load.load_p6ulv5878_1 conn=wye bus1=p6ulv5878.1 kV=0.12 Vminpu=0.8 Vmaxpu=1.2 model=1 kva=0.94501 pf=1.0 Phases=1
New Load.load_p6ulv5878_2 conn=wye bus1=p6ulv5878.2 kV=0.12 Vminpu=0.8 Vmaxpu=1.2 model=1 kva=0.94501 pf=1.0 Phases=1
New Load.load_p6ulv5879_2 conn=wye bus1=p6ulv5879.2 kV=0.12 Vminpu=0.8 Vmaxpu=1.2 model=1 kva=0.78501 pf=1.0 Phases=1
New Load.load_p6ulv5880_1 conn=wye bus1=p6ulv5880.1 kV=0.12 Vminpu=0.8 Vmaxpu=1.2 model=1 kva=0.93501 pf=1.0 Phases=1
New Load.load_p6ulv5880_2 conn=wye bus1=p6ulv5880.2 kV=0.12 Vminpu=0.8 Vmaxpu=1.2 model=1 kva=0.93501 pf=1.0 Phases=1
New Load.load_p6ulv5881_2 conn=wye bus1=p6ulv5881.2 kV=0.12 Vminpu=0.8 Vmaxpu=1.2 model=1 kva=0.92001 pf=1.0 Phases=1
New Load.load_p6ulv5882_1 conn=wye bus1=p6ulv5882.1 kV=0.12 Vminpu=0.8 Vmaxpu=1.2 model=1 kva=0.78001 pf=1.0 Phases=1
New Load.load_p6ulv5882_2 conn=wye bus1=p6ulv5882.2 kV=0.12 Vminpu=0.8 Vmaxpu=1.2 model=1 kva=0.78001 pf=1.0 Phases=1
New Load.load_p6ulv5883_1 conn=wye bus1=p6ulv5883.1 kV=0.12 Vminpu=0.8 Vmaxpu=1.2 model=1 kva=1.19501 pf=1.0 Phases=1
New Load.load_p6ulv5883_2 conn=wye bus1=p6ulv5883.2 kV=0.12 Vminpu=0.8 Vmaxpu=1.2 model=1 kva=1.19501 pf=1.0 Phases=1
New Load.load_p6ulv5884_1 conn=wye bus1=p6ulv5884.1 kV=0.12 Vminpu=0.8 Vmaxpu=1.2 model=1 kva=1.635015 pf=1.0 Phases=1
New Load.load_p6ulv5885_1 conn=wye bus1=p6ulv5885.1 kV=0.12 Vminpu=0.8 Vmaxpu=1.2 model=1 kva=1.22001 pf=1.0 Phases=1
New Load.load_p6ulv5886_1 conn=wye bus1=p6ulv5886.1 kV=0.12 Vminpu=0.8 Vmaxpu=1.2 model=1 kva=1.04001 pf=1.0 Phases=1
New Load.load_p6ulv5886_2 conn=wye bus1=p6ulv5886.2 kV=0.12 Vminpu=0.8 Vmaxpu=1.2 model=1 kva=1.04001 pf=1.0 Phases=1
New Load.load_p6ulv5887_1 conn=wye bus1=p6ulv5887.1 kV=0.12 Vminpu=0.8 Vmaxpu=1.2 model=1 kva=1.420015 pf=1.0 Phases=1
New Load.load_p6ulv5887_2 conn=wye bus1=p6ulv5887.2 kV=0.12 Vminpu=0.8 Vmaxpu=1.2 model=1 kva=1.420015 pf=1.0 Phases=1
New Load.load_p6ulv5888_1 conn=wye bus1=p6ulv5888.1 kV=0.12 Vminpu=0.8 Vmaxpu=1.2 model=1 kva=0.98001 pf=1.0 Phases=1
New Load.load_p6ulv5888_2 conn=wye bus1=p6ulv5888.2 kV=0.12 Vminpu=0.8 Vmaxpu=1.2 model=1 kva=0.98001 pf=1.0 Phases=1
New Load.load_p6ulv5889_1 conn=wye bus1=p6ulv5889.1 kV=0.12 Vminpu=0.8 Vmaxpu=1.2 model=1 kva=1.21501 pf=1.0 Phases=1
New Load.load_p6ulv5889_2 conn=wye bus1=p6ulv5889.2 kV=0.12 Vminpu=0.8 Vmaxpu=1.2 model=1 kva=1.21501 pf=1.0 Phases=1
New Load.load_p6ulv5891_1 conn=wye bus1=p6ulv5891.1 kV=0.12 Vminpu=0.8 Vmaxpu=1.2 model=1 kva=0.735005 pf=1.0 Phases=1
New Load.load_p6ulv5891_2 conn=wye bus1=p6ulv5891.2 kV=0.12 Vminpu=0.8 Vmaxpu=1.2 model=1 kva=0.735005 pf=1.0 Phases=1
New Load.load_p6ulv5893_1 conn=wye bus1=p6ulv5893.1 kV=0.12 Vminpu=0.8 Vmaxpu=1.2 model=1 kva=0.515005 pf=1.0 Phases=1
New Load.load_p6ulv5893_2 conn=wye bus1=p6ulv5893.2 kV=0.12 Vminpu=0.8 Vmaxpu=1.2 model=1 kva=0.515005 pf=1.0 Phases=1
New Load.load_p6ulv5894_1 conn=wye bus1=p6ulv5894.1 kV=0.12 Vminpu=0.8 Vmaxpu=1.2 model=1 kva=0.94501 pf=1.0 Phases=1
New Load.load_p6ulv5894_2 conn=wye bus1=p6ulv5894.2 kV=0.12 Vminpu=0.8 Vmaxpu=1.2 model=1 kva=0.94501 pf=1.0 Phases=1
New Load.load_p6ulv5895_1 conn=wye bus1=p6ulv5895.1 kV=0.12 Vminpu=0.8 Vmaxpu=1.2 model=1 kva=0.95501 pf=1.0 Phases=1
New Load.load_p6ulv5895_2 conn=wye bus1=p6ulv5895.2 kV=0.12 Vminpu=0.8 Vmaxpu=1.2 model=1 kva=0.95501 pf=1.0 Phases=1
New Load.load_p6ulv5896_1 conn=wye bus1=p6ulv5896.1 kV=0.12 Vminpu=0.8 Vmaxpu=1.2 model=1 kva=0.94501 pf=1.0 Phases=1
New Load.load_p6ulv5896_2 conn=wye bus1=p6ulv5896.2 kV=0.12 Vminpu=0.8 Vmaxpu=1.2 model=1 kva=0.94501 pf=1.0 Phases=1
New Load.load_p6ulv5897_2 conn=wye bus1=p6ulv5897.2 kV=0.12 Vminpu=0.8 Vmaxpu=1.2 model=1 kva=1.03501 pf=1.0 Phases=1
New Load.load_p6ulv5898_1 conn=wye bus1=p6ulv5898.1 kV=0.12 Vminpu=0.8 Vmaxpu=1.2 model=1 kva=1.305015 pf=1.0 Phases=1
New Load.load_p6ulv5898_2 conn=wye bus1=p6ulv5898.2 kV=0.12 Vminpu=0.8 Vmaxpu=1.2 model=1 kva=1.305015 pf=1.0 Phases=1
New Load.load_p6ulv5899_1 conn=wye bus1=p6ulv5898.1 kV=0.12 Vminpu=0.8 Vmaxpu=1.2 model=1 kva=0.8600100000000002 pf=1.0 Phases=1
New Load.load_p6ulv5899_2 conn=wye bus1=p6ulv5898.2 kV=0.12 Vminpu=0.8 Vmaxpu=1.2 model=1 kva=0.8600100000000002 pf=1.0 Phases=1
New Load.load_p6ulv5900_1 conn=wye bus1=p6ulv5900.1 kV=0.12 Vminpu=0.8 Vmaxpu=1.2 model=1 kva=1.01501 pf=1.0 Phases=1
New Load.load_p6ulv5900_2 conn=wye bus1=p6ulv5900.2 kV=0.12 Vminpu=0.8 Vmaxpu=1.2 model=1 kva=1.01501 pf=1.0 Phases=1
New Load.load_p6ulv5902_2 conn=wye bus1=p6ulv5902.2 kV=0.12 Vminpu=0.8 Vmaxpu=1.2 model=1 kva=1.320015 pf=1.0 Phases=1
New Load.load_p6ulv5903_1 conn=wye bus1=p6ulv5903.1 kV=0.12 Vminpu=0.8 Vmaxpu=1.2 model=1 kva=0.745005 pf=1.0 Phases=1
New Load.load_p6ulv5903_2 conn=wye bus1=p6ulv5903.2 kV=0.12 Vminpu=0.8 Vmaxpu=1.2 model=1 kva=0.745005 pf=1.0 Phases=1