New Load.motor_load_p6ulv977_1 conn=wye bus1=p6ulv977.1 kV=0.12 kW=1.1255425253388158 kvar=0.22510850506776317 Phases=1 Vminpu=0.0 Vmaxpu=1.2 model=1
New Load.motor_load_p6ulv5744_1 conn=wye bus1=p6ulv5744.1 kV=0.12 kW=1.0710586120292604 kvar=0.2142117224058521 Phases=1 Vminpu=0.0 Vmaxpu=1.2 model=1
New Load.motor_load_p6ulv5745_2 conn=wye bus1=p6ulv5745.2 kV=0.12 kW=1.144214131169385 kvar=0.228842826233877 Phases=1 Vminpu=0.0 Vmaxpu=1.2 model=1
New Load.motor_load_p6ulv5749_2 conn=wye bus1=p6ulv5749.2 kV=0.12 kW=1.0690892249035588 kvar=0.21381784498071177 Phases=1 Vminpu=0.0 Vmaxpu=1.2 model=1
New Load.motor_load_p6ulv5751_2 conn=wye bus1=p6ulv5751.2 kV=0.12 kW=1.2250728666650863 kvar=0.24501457333301727 Phases=1 Vminpu=0.0 Vmaxpu=1.2 model=1
New Load.motor_load_p6ulv5752_1 conn=wye bus1=p6ulv5752.1 kV=0.12 kW=1.150579962699962 kvar=0.2301159925399924 Phases=1 Vminpu=0.0 Vmaxpu=1.2 model=1
New Load.motor_load_p6ulv5753_1 conn=wye bus1=p6ulv5753.1 kV=0.12 kW=1.0730650843365521 kvar=0.21461301686731044 Phases=1 Vminpu=0.0 Vmaxpu=1.2 model=1
New Load.motor_load_p6ulv5753_2 conn=wye bus1=p6ulv5753.2 kV=0.12 kW=1.1254270330397405 kvar=0.2250854066079481 Phases=1 Vminpu=0.0 Vmaxpu=1.2 model=1
New Load.motor_load_p6ulv5754_2 conn=wye bus1=p6ulv5754.2 kV=0.12 kW=1.0987278686713355 kvar=0.21974557373426712 Phases=1 Vminpu=0.0 Vmaxpu=1.2 model=1
New Load.motor_load_p6ulv5757_2 conn=wye bus1=p6ulv5757.2 kV=0.12 kW=1.1466019692577099 kvar=0.229320393851542 Phases=1 Vminpu=0.0 Vmaxpu=1.2 model=1
New Load.motor_load_p6ulv5760_2 conn=wye bus1=p6ulv5760.2 kV=0.12 kW=1.0682332935061636 kvar=0.21364665870123273 Phases=1 Vminpu=0.0 Vmaxpu=1.2 model=1
New Load.motor_load_p6ulv5761_2 conn=wye bus1=p6ulv5761.2 kV=0.12 kW=1.1391868619804582 kvar=0.22783737239609164 Phases=1 Vminpu=0.0 Vmaxpu=1.2 model=1
New Load.motor_load_p6ulv5762_1 conn=wye bus1=p6ulv5762.1 kV=0.12 kW=1.0724802144214451 kvar=0.21449604288428903 Phases=1 Vminpu=0.0 Vmaxpu=1.2 model=1
New Load.motor_load_p6ulv5763_1 conn=wye bus1=p6ulv5763.1 kV=0.12 kW=1.189543047983909 kvar=0.23790860959678184 Phases=1 Vminpu=0.0 Vmaxpu=1.2 model=1
New Load.motor_load_p6ulv5764_2 conn=wye bus1=p6ulv5764.2 kV=0.12 kW=1.0919786922113037 kvar=0.21839573844226076 Phases=1 Vminpu=0.0 Vmaxpu=1.2 model=1
New Load.motor_load_p6ulv5772_1 conn=wye bus1=p6ulv5772.1 kV=0.12 kW=1.060585605790893 kvar=0.2121171211581786 Phases=1 Vminpu=0.0 Vmaxpu=1.2 model=1
New Load.motor_load_p6ulv5772_2 conn=wye bus1=p6ulv5772.2 kV=0.12 kW=1.105544044420108 kvar=0.2211088088840216 Phases=1 Vminpu=0.0 Vmaxpu=1.2 model=1
New Load.motor_load_p6ulv5774_2 conn=wye bus1=p6ulv5774.2 kV=0.12 kW=1.2266499905416872 kvar=0.24532999810833744 Phases=1 Vminpu=0.0 Vmaxpu=1.2 model=1
New Load.motor_load_p6ulv5783_2 conn=wye bus1=p6ulv5783.2 kV=0.12 kW=1.0986845790029043 kvar=0.21973691580058086 Phases=1 Vminpu=0.0 Vmaxpu=1.2 model=1
New Load.motor_load_p6ulv5784_1 conn=wye bus1=p6ulv5784.1 kV=0.12 kW=1.0537694462779168 kvar=0.21075388925558336 Phases=1 Vminpu=0.0 Vmaxpu=1.2 model=1
New Load.motor_load_p6ulv5785_1 conn=wye bus1=p6ulv5785.1 kV=0.12 kW=1.2196659914556782 kvar=0.24393319829113566 Phases=1 Vminpu=0.0 Vmaxpu=1.2 model=1
New Load.motor_load_p6ulv5785_2 conn=wye bus1=p6ulv5785.2 kV=0.12 kW=1.1189099931193804 kvar=0.2237819986238761 Phases=1 Vminpu=0.0 Vmaxpu=1.2 model=1
New Load.motor_load_p6ulv5786_2 conn=wye bus1=p6ulv5786.2 kV=0.12 kW=1.1039141317963694 kvar=0.2207828263592739 Phases=1 Vminpu=0.0 Vmaxpu=1.2 model=1
New Load.motor_load_p6ulv5788_2 conn=wye bus1=p6ulv5788.2 kV=0.12 kW=1.1212545753623653 kvar=0.22425091507247308 Phases=1 Vminpu=0.0 Vmaxpu=1.2 model=1
New Load.motor_load_p6ulv5797_1 conn=wye bus1=p6ulv5797.1 kV=0.12 kW=1.0992794278937055 kvar=0.2198558855787411 Phases=1 Vminpu=0.0 Vmaxpu=1.2 model=1
New Load.motor_load_p6ulv5799_2 conn=wye bus1=p6ulv5799.2 kV=0.12 kW=1.0761437697896963 kvar=0.21522875395793928 Phases=1 Vminpu=0.0 Vmaxpu=1.2 model=1
New Load.motor_load_p6ulv5807_2 conn=wye bus1=p6ulv5807.2 kV=0.12 kW=1.1699626246120578 kvar=0.23399252492241157 Phases=1 Vminpu=0.0 Vmaxpu=1.2 model=1
New Load.motor_load_p6ulv5808_1 conn=wye bus1=p6ulv5808.1 kV=0.12 kW=1.2106243994274162 kvar=0.24212487988548326 Phases=1 Vminpu=0.0 Vmaxpu=1.2 model=1
New Load.motor_load_p6ulv5813_1 conn=wye bus1=p6ulv5813.1 kV=0.12 kW=1.0744182743595034 kvar=0.2148836548719007 Phases=1 Vminpu=0.0 Vmaxpu=1.2 model=1
New Load.motor_load_p6ulv5814_2 conn=wye bus1=p6ulv5814.2 kV=0.12 kW=1.1955841300077272 kvar=0.23911682600154546 Phases=1 Vminpu=0.0 Vmaxpu=1.2 model=1
New Load.motor_load_p6ulv5816_2 conn=wye bus1=p6ulv5816.2 kV=0.12 kW=1.2578831102410206 kvar=0.25157662204820413 Phases=1 Vminpu=0.0 Vmaxpu=1.2 model=1
New Load.motor_load_p6ulv5820_1 conn=wye bus1=p6ulv5820.1 kV=0.12 kW=1.1359030728913453 kvar=0.22718061457826907 Phases=1 Vminpu=0.0 Vmaxpu=1.2 model=1
New Load.motor_load_p6ulv5821_2 conn=wye bus1=p6ulv5821.2 kV=0.12 kW=1.2314920312809363 kvar=0.24629840625618726 Phases=1 Vminpu=0.0 Vmaxpu=1.2 model=1
New Load.motor_load_p6ulv5822_1 conn=wye bus1=p6ulv5822.1 kV=0.12 kW=1.2549980223611488 kvar=0.25099960447222974 Phases=1 Vminpu=0.0 Vmaxpu=1.2 model=1
New Load.motor_load_p6ulv5823_1 conn=wye bus1=p6ulv5823.1 kV=0.12 kW=1.1575756554081436 kvar=0.23151513108162872 Phases=1 Vminpu=0.0 Vmaxpu=1.2 model=1
New Load.motor_load_p6ulv5823_2 conn=wye bus1=p6ulv5823.2 kV=0.12 kW=1.1303001593575026 kvar=0.22606003187150053 Phases=1 Vminpu=0.0 Vmaxpu=1.2 model=1
New Load.motor_load_p6ulv5824_1 conn=wye bus1=p6ulv5824.1 kV=0.12 kW=1.0609592936324395 kvar=0.2121918587264879 Phases=1 Vminpu=0.0 Vmaxpu=1.2 model=1
New Load.motor_load_p6ulv5824_2 conn=wye bus1=p6ulv5824.2 kV=0.12 kW=1.164292828992017 kvar=0.2328585657984034 Phases=1 Vminpu=0.0 Vmaxpu=1.2 model=1
New Load.motor_load_p6ulv5826_1 conn=wye bus1=p6ulv5826.1 kV=0.12 kW=1.0549262473693268 kvar=0.21098524947386538 Phases=1 Vminpu=0.0 Vmaxpu=1.2 model=1
New Load.motor_load_p6ulv5827_1 conn=wye bus1=p6ulv5827.1 kV=0.12 kW=1.1808330007467482 kvar=0.23616660014934965 Phases=1 Vminpu=0.0 Vmaxpu=1.2 model=1
New Load.motor_load_p6ulv5827_2 conn=wye bus1=p6ulv5827.2 kV=0.12 kW=1.143329170577454 kvar=0.2286658341154908 Phases=1 Vminpu=0.0 Vmaxpu=1.2 model=1
New Load.motor_load_p6ulv5839_2 conn=wye bus1=p6ulv5839.2 kV=0.12 kW=1.1061553010423548 kvar=0.22123106020847097 Phases=1 Vminpu=0.0 Vmaxpu=1.2 model=1
New Load.motor_load_p6ulv5840_1 conn=wye bus1=p6ulv5840.1 kV=0.12 kW=1.114389799273906 kvar=0.2228779598547812 Phases=1 Vminpu=0.0 Vmaxpu=1.2 model=1
New Load.motor_load_p6ulv5840_2 conn=wye bus1=p6ulv5840.2 kV=0.12 kW=1.1643536342111471 kvar=0.23287072684222943 Phases=1 Vminpu=0.0 Vmaxpu=1.2 model=1
New Load.motor_load_p6ulv5843_2 conn=wye bus1=p6ulv5843.2 kV=0.12 kW=1.1518578705820457 kvar=0.23037157411640916 Phases=1 Vminpu=0.0 Vmaxpu=1.2 model=1
New Load.motor_load_p6ulv5847_2 conn=wye bus1=p6ulv5847.2 kV=0.12 kW=1.088057107843233 kvar=0.21761142156864663 Phases=1 Vminpu=0.0 Vmaxpu=1.2 model=1
New Load.motor_load_p6ulv5848_1 conn=wye bus1=p6ulv5848.1 kV=0.12 kW=1.2062050168546703 kvar=0.24124100337093407 Phases=1 Vminpu=0.0 Vmaxpu=1.2 model=1
New Load.motor_load_p6ulv5849_1 conn=wye bus1=p6ulv5849.1 kV=0.12 kW=1.1465108723715007 kvar=0.22930217447430015 Phases=1 Vminpu=0.0 Vmaxpu=1.2 model=1
New Load.motor_load_p6ulv5850_1 conn=wye bus1=p6ulv5850.1 kV=0.12 kW=1.2089951388326128 kvar=0.24179902776652257 Phases=1 Vminpu=0.0 Vmaxpu=1.2 model=1
New Load.motor_load_p6ulv5850_2 conn=wye bus1=p6ulv5850.2 kV=0.12 kW=1.0584991858074029 kvar=0.21169983716148058 Phases=1 Vminpu=0.0 Vmaxpu=1.2 model=1
New Load.motor_load_p6ulv5851_2 conn=wye bus1=p6ulv5851.2 kV=0.12 kW=1.1364158490350111 kvar=0.22728316980700225 Phases=1 Vminpu=0.0 Vmaxpu=1.2 model=1
New Load.motor_load_p6ulv5852_1 conn=wye bus1=p6ulv5852.1 kV=0.12 kW=1.0795772737326221 kvar=0.21591545474652443 Phases=1 Vminpu=0.0 Vmaxpu=1.2 model=1
New Load.motor_load_p6ulv5853 conn=wye bus1=p6ulv5853.1.2.3 kV=0.48 kW=1.2059617750920992 kvar=0.24119235501841985 Phases=3 Vminpu=0.0 Vmaxpu=1.2 model=1
New Load.motor_load_p6ulv5856_1 conn=wye bus1=p6ulv5856.1 kV=0.12 kW=1.2135622829606298 kvar=0.24271245659212598 Phases=1 Vminpu=0.0 Vmaxpu=1.2 model=1
New Load.motor_load_p6ulv5860_2 conn=wye bus1=p6ulv5860.2 kV=0.12 kW=1.2298148799122648 kvar=0.24596297598245298 Phases=1 Vminpu=0.0 Vmaxpu=1.2 model=1
New Load.motor_load_p6ulv5863_1 conn=wye bus1=p6ulv5863.1 kV=0.12 kW=1.215146279620423 kvar=0.24302925592408464 Phases=1 Vminpu=0.0 Vmaxpu=1.2 model=1
New Load.motor_load_p6ulv5864_2 conn=wye bus1=p6ulv5864.2 kV=0.12 kW=1.0960154420609067 kvar=0.21920308841218136 Phases=1 Vminpu=0.0 Vmaxpu=1.2 model=1
New Load.motor_load_p6ulv5866_1 conn=wye bus1=p6ulv5866.1 kV=0.12 kW=1.2472605174313502 kvar=0.24945210348627006 Phases=1 Vminpu=0.0 Vmaxpu=1.2 model=1
New Load.motor_load_p6ulv5867_1 conn=wye bus1=p6ulv5866.1 kV=0.12 kW=1.170436545724783 kvar=0.2340873091449566 Phases=1 Vminpu=0.0 Vmaxpu=1.2 model=1
New Load.motor_load_p6ulv5867_2 conn=wye bus1=p6ulv5866.2 kV=0.12 kW=1.1034113996588277 kvar=0.22068227993176556 Phases=1 Vminpu=0.0 Vmaxpu=1.2 model=1
New Load.motor_load_p6ulv5868_1 conn=wye bus1=p6ulv5868.1 kV=0.12 kW=1.1466013935397223 kvar=0.22932027870794447 Phases=1 Vminpu=0.0 Vmaxpu=1.2 model=1
New Load.motor_load_p6ulv5868_2 conn=wye bus1=p6ulv5868.2 kV=0.12 kW=1.1817140469830396 kvar=0.23634280939660793 Phases=1 Vminpu=0.0 Vmaxpu=1.2 model=1
New Load.motor_load_p6ulv5870_1 conn=wye bus1=p6ulv5870.1 kV=0.12 kW=1.1622274334693483 kvar=0.23244548669386966 Phases=1 Vminpu=0.0 Vmaxpu=1.2 model=1
New Load.motor_load_p6ulv5870_2 conn=wye bus1=p6ulv5870.2 kV=0.12 kW=1.0798360540899363 kvar=0.21596721081798728 Phases=1 Vminpu=0.0 Vmaxpu=1.2 model=1
New Load.motor_load_p6ulv5877_1 conn=wye bus1=p6ulv5877.1 kV=0.12 kW=1.084541807102893 kvar=0.2169083614205786 Phases=1 Vminpu=0.0 Vmaxpu=1.2 model=1
New Load.motor_load_p6ulv5879_1 conn=wye bus1=p6ulv5879.1 kV=0.12 kW=1.1474437028329108 kvar=0.22948874056658217 Phases=1 Vminpu=0.0 Vmaxpu=1.2 model=1
New Load.motor_load_p6ulv5881_1 conn=wye bus1=p6ulv5881.1 kV=0.12 kW=1.0780087295824314 kvar=0.2156017459164863 Phases=1 Vminpu=0.0 Vmaxpu=1.2 model=1
New Load.motor_load_p6ulv5884_2 conn=wye bus1=p6ulv5884.2 kV=0.12 kW=1.0576992061513741 kvar=0.21153984123027483 Phases=1 Vminpu=0.0 Vmaxpu=1.2 model=1
New Load.motor_load_p6ulv5885_2 conn=wye bus1=p6ulv5885.2 kV=0.12 kW=1.127000718961585 kvar=0.225400143792317 Phases=1 Vminpu=0.0 Vmaxpu=1.2 model=1
New Load.motor_load_p6ulv5890_1 conn=wye bus1=p6ulv5890.1 kV=0.12 kW=1.1060854188408848 kvar=0.22121708376817698 Phases=1 Vminpu=0.0 Vmaxpu=1.2 model=1
New Load.motor_load_p6ulv5890_2 conn=wye bus1=p6ulv5890.2 kV=0.12 kW=1.2341234074325764 kvar=0.2468246814865153 Phases=1 Vminpu=0.0 Vmaxpu=1.2 model=1
New Load.motor_load_p6ulv5892_1 conn=wye bus1=p6ulv5892.1 kV=0.12 kW=1.1281452604017987 kvar=0.22562905208035977 Phases=1 Vminpu=0.0 Vmaxpu=1.2 model=1
New Load.motor_load_p6ulv5892_2 conn=wye bus1=p6ulv5892.2 kV=0.12 kW=1.230711603252765 kvar=0.246142320650553 Phases=1 Vminpu=0.0 Vmaxpu=1.2 model=1
New Load.motor_load_p6ulv5897_1 conn=wye bus1=p6ulv5897.1 kV=0.12 kW=1.12375229546377 kvar=0.224750459092754 Phases=1 Vminpu=0.0 Vmaxpu=1.2 model=1
New Load.motor_load_p6ulv5901_1 conn=wye bus1=p6ulv5901.1 kV=0.12 kW=1.124521518914187 kvar=0.22490430378283743 Phases=1 Vminpu=0.0 Vmaxpu=1.2 model=1
New Load.motor_load_p6ulv5901_2 conn=wye bus1=p6ulv5901.2 kV=0.12 kW=1.141883346462974 kvar=0.2283766692925948 Phases=1 Vminpu=0.0 Vmaxpu=1.2 model=1
New Load.motor_load_p6ulv5902_1 conn=wye bus1=p6ulv5902.1 kV=0.12 kW=1.1959482069359813 kvar=0.23918964138719626 Phases=1 Vminpu=0.0 Vmaxpu=1.2 model=1
New Load.motor_load_p6ulv5904_2 conn=wye bus1=p6ulv5904.2 kV=0.12 kW=1.1410545884894032 kvar=0.22821091769788066 Phases=1 Vminpu=0.0 Vmaxpu=1.2 model=1
New Load.motor_load_p6ulv5905_1 conn=wye bus1=p6ulv5905.1 kV=0.12 kW=1.073608729331475 kvar=0.21472174586629503 Phases=1 Vminpu=0.0 Vmaxpu=1.2 model=1
New Load.motor_load_p6ulv5905_2 conn=wye bus1=p6ulv5905.2 kV=0.12 kW=1.2564841260196677 kvar=0.25129682520393354 Phases=1 Vminpu=0.0 Vmaxpu=1.2 model=1
New Load.motor_load_p6ulv5917_1 conn=wye bus1=p6ulv5917.1 kV=0.12 kW=1.1461702160640785 kvar=0.2292340432128157 Phases=1 Vminpu=0.0 Vmaxpu=1.2 model=1
New Load.motor_load_p6ulv5918_1 conn=wye bus1=p6ulv5918.1 kV=0.12 kW=1.1059867130195165 kvar=0.2211973426039033 Phases=1 Vminpu=0.0 Vmaxpu=1.2 model=1
New Load.motor_load_p6ulv5919_2 conn=wye bus1=p6ulv5919.2 kV=0.12 kW=1.2138916275007128 kvar=0.24277832550014256 Phases=1 Vminpu=0.0 Vmaxpu=1.2 model=1
New Load.motor_load_p6ulv5922_1 conn=wye bus1=p6ulv5922.1 kV=0.12 kW=1.2539897298249079 kvar=0.25079794596498156 Phases=1 Vminpu=0.0 Vmaxpu=1.2 model=1
New Load.motor_load_p6ulv5925_2 conn=wye bus1=p6ulv5925.2 kV=0.12 kW=1.1925082496426023 kvar=0.23850164992852046 Phases=1 Vminpu=0.0 Vmaxpu=1.2 model=1
New Load.motor_load_p6ulv5926_1 conn=wye bus1=p6ulv5926.1 kV=0.12 kW=1.1231069004141967 kvar=0.22462138008283936 Phases=1 Vminpu=0.0 Vmaxpu=1.2 model=1
New Load.motor_load_p6ulv5927_1 conn=wye bus1=p6ulv5927.1 kV=0.12 kW=1.1561705311523982 kvar=0.23123410623047966 Phases=1 Vminpu=0.0 Vmaxpu=1.2 model=1
New Load.motor_load_p6ulv5928_1 conn=wye bus1=p6ulv5928.1 kV=0.12 kW=1.1405299395513515 kvar=0.2281059879102703 Phases=1 Vminpu=0.0 Vmaxpu=1.2 model=1
New Load.motor_load_p6ulv5928_2 conn=wye bus1=p6ulv5928.2 kV=0.12 kW=1.1662232961317154 kvar=0.23324465922634308 Phases=1 Vminpu=0.0 Vmaxpu=1.2 model=1
New Load.motor_load_p6ulv5930_2 conn=wye bus1=p6ulv5930.2 kV=0.12 kW=1.1042303131370999 kvar=0.22084606262742 Phases=1 Vminpu=0.0 Vmaxpu=1.2 model=1
New Load.motor_load_p6ulv5933_1 conn=wye bus1=p6ulv5933.1 kV=0.12 kW=1.1033747168300538 kvar=0.2206749433660108 Phases=1 Vminpu=0.0 Vmaxpu=1.2 model=1
New Load.motor_load_p6ulv5933_2 conn=wye bus1=p6ulv5933.2 kV=0.12 kW=1.2550892605150121 kvar=0.2510178521030024 Phases=1 Vminpu=0.0 Vmaxpu=1.2 model=1
New Load.motor_load_p6ulv5935_2 conn=wye bus1=p6ulv5935.2 kV=0.12 kW=1.1294894462517988 kvar=0.22589788925035978 Phases=1 Vminpu=0.0 Vmaxpu=1.2 model=1
New Load.motor_load_p6ulv5936_1 conn=wye bus1=p6ulv5936.1 kV=0.12 kW=1.0552591701560967 kvar=0.21105183403121935 Phases=1 Vminpu=0.0 Vmaxpu=1.2 model=1
New Load.motor_load_p6ulv5936_2 conn=wye bus1=p6ulv5936.2 kV=0.12 kW=1.246589547256258 kvar=0.24931790945125162 Phases=1 Vminpu=0.0 Vmaxpu=1.2 model=1
New Load.motor_load_p6ulv5938_1 conn=wye bus1=p6ulv5938.1 kV=0.12 kW=1.0541537658378068 kvar=0.2108307531675614 Phases=1 Vminpu=0.0 Vmaxpu=1.2 model=1
New Load.motor_load_p6ulv5940_2 conn=wye bus1=p6ulv5940.2 kV=0.12 kW=1.1492541487523606 kvar=0.22985082975047214 Phases=1 Vminpu=0.0 Vmaxpu=1.2 model=1
New Load.motor_load_p6ulv5942_1 conn=wye bus1=p6ulv5942.1 kV=0.12 kW=1.1597494605042906 kvar=0.23194989210085815 Phases=1 Vminpu=0.0 Vmaxpu=1.2 model=1
New Load.motor_load_p6ulv5948_2 conn=wye bus1=p6ulv5948.2 kV=0.12 kW=1.0553941100279869 kvar=0.21107882200559738 Phases=1 Vminpu=0.0 Vmaxpu=1.2 model=1
New Load.motor_load_p6ulv5954_2 conn=wye bus1=p6ulv5954.2 kV=0.12 kW=1.2306379921874668 kvar=0.24612759843749338 Phases=1 Vminpu=0.0 Vmaxpu=1.2 model=1
New Load.motor_load_p6ulv5957_2 conn=wye bus1=p6ulv5957.2 kV=0.12 kW=1.1782936804882345 kvar=0.2356587360976469 Phases=1 Vminpu=0.0 Vmaxpu=1.2 model=1
New Load.motor_load_p6ulv5958_1 conn=wye bus1=p6ulv5958.1 kV=0.12 kW=1.1245881465606131 kvar=0.22491762931212264 Phases=1 Vminpu=0.0 Vmaxpu=1.2 model=1
New Load.motor_load_p6ulv5959_1 conn=wye bus1=p6ulv5959.1 kV=0.12 kW=1.2517980082696667 kvar=0.25035960165393334 Phases=1 Vminpu=0.0 Vmaxpu=1.2 model=1
New Load.motor_load_p6ulv5959_2 conn=wye bus1=p6ulv5959.2 kV=0.12 kW=1.24363959881148 kvar=0.248727919762296 Phases=1 Vminpu=0.0 Vmaxpu=1.2 model=1
New Load.motor_load_p6ulv5960_2 conn=wye bus1=p6ulv5960.2 kV=0.12 kW=1.1066065664845484 kvar=0.22132131329690968 Phases=1 Vminpu=0.0 Vmaxpu=1.2 model=1
New Load.motor_load_p6ulv5961_1 conn=wye bus1=p6ulv5961.1 kV=0.12 kW=1.065332286669227 kvar=0.2130664573338454 Phases=1 Vminpu=0.0 Vmaxpu=1.2 model=1
New Load.motor_load_p6ulv5962_1 conn=wye bus1=p6ulv5962.1 kV=0.12 kW=1.2024784990833994 kvar=0.2404956998166799 Phases=1 Vminpu=0.0 Vmaxpu=1.2 model=1
New Load.motor_load_p6ulv5963_1 conn=wye bus1=p6ulv5963.1 kV=0.12 kW=1.107967455303671 kvar=0.2215934910607342 Phases=1 Vminpu=0.0 Vmaxpu=1.2 model=1
New Load.motor_load_p6ulv5964_1 conn=wye bus1=p6ulv5964.1 kV=0.12 kW=1.2557080128676437 kvar=0.25114160257352874 Phases=1 Vminpu=0.0 Vmaxpu=1.2 model=1
New Load.motor_load_p6ulv5964_2 conn=wye bus1=p6ulv5964.2 kV=0.12 kW=1.152335878963274 kvar=0.23046717579265483 Phases=1 Vminpu=0.0 Vmaxpu=1.2 model=1
New Load.motor_load_p6ulv5965_1 conn=wye bus1=p6ulv5965.1 kV=0.12 kW=1.2087721124752642 kvar=0.24175442249505286 Phases=1 Vminpu=0.0 Vmaxpu=1.2 model=1
New Load.motor_load_p6ulv5966_1 conn=wye bus1=p6ulv5966.1 kV=0.12 kW=1.1526143270700184 kvar=0.23052286541400369 Phases=1 Vminpu=0.0 Vmaxpu=1.2 model=1
New Load.motor_load_p6ulv5968_1 conn=wye bus1=p6ulv5968.1 kV=0.12 kW=1.1049208807199276 kvar=0.22098417614398552 Phases=1 Vminpu=0.0 Vmaxpu=1.2 model=1
New Load.motor_load_p6ulv5968_2 conn=wye bus1=p6ulv5968.2 kV=0.12 kW=1.1298711925135323 kvar=0.22597423850270648 Phases=1 Vminpu=0.0 Vmaxpu=1.2 model=1
New Load.motor_load_p6ulv5970_1 conn=wye bus1=p6ulv5970.1 kV=0.12 kW=1.1940927500824088 kvar=0.23881855001648178 Phases=1 Vminpu=0.0 Vmaxpu=1.2 model=1
New Load.motor_load_p6ulv5973_2 conn=wye bus1=p6ulv5973.2 kV=0.12 kW=1.2092074776982629 kvar=0.2418414955396526 Phases=1 Vminpu=0.0 Vmaxpu=1.2 model=1
New Load.motor_load_p6ulv5974_1 conn=wye bus1=p6ulv5974.1 kV=0.12 kW=1.1115838638027324 kvar=0.2223167727605465 Phases=1 Vminpu=0.0 Vmaxpu=1.2 model=1
New Load.motor_load_p6ulv5974_2 conn=wye bus1=p6ulv5974.2 kV=0.12 kW=1.105012034918807 kvar=0.22100240698376142 Phases=1 Vminpu=0.0 Vmaxpu=1.2 model=1
New Load.motor_load_p6ulv5977_2 conn=wye bus1=p6ulv5977.2 kV=0.12 kW=1.1610127246407846 kvar=0.23220254492815695 Phases=1 Vminpu=0.0 Vmaxpu=1.2 model=1
New Load.motor_load_p6ulv5978_2 conn=wye bus1=p6ulv5978.2 kV=0.12 kW=1.2578589331783154 kvar=0.2515717866356631 Phases=1 Vminpu=0.0 Vmaxpu=1.2 model=1
New Load.motor_load_p6ulv5979_1 conn=wye bus1=p6ulv5979.1 kV=0.12 kW=1.1629695148135644 kvar=0.23259390296271287 Phases=1 Vminpu=0.0 Vmaxpu=1.2 model=1
New Load.motor_load_p6ulv5982_2 conn=wye bus1=p6ulv5982.2 kV=0.12 kW=1.1109969970954525 kvar=0.2221993994190905 Phases=1 Vminpu=0.0 Vmaxpu=1.2 model=1
New Load.motor_load_p6ulv5983_1 conn=wye bus1=p6ulv5983.1 kV=0.12 kW=1.1255690510814664 kvar=0.2251138102162933 Phases=1 Vminpu=0.0 Vmaxpu=1.2 model=1
New Load.motor_load_p6ulv5985_1 conn=wye bus1=p6ulv5985.1 kV=0.12 kW=1.2444364777579278 kvar=0.24888729555158556 Phases=1 Vminpu=0.0 Vmaxpu=1.2 model=1
New Load.motor_load_p6ulv5987_2 conn=wye bus1=p6ulv5987.2 kV=0.12 kW=1.0934441649485642 kvar=0.21868883298971287 Phases=1 Vminpu=0.0 Vmaxpu=1.2 model=1
New Load.motor_load_p6ulv5988_2 conn=wye bus1=p6ulv5988.2 kV=0.12 kW=1.1267458810992679 kvar=0.2253491762198536 Phases=1 Vminpu=0.0 Vmaxpu=1.2 model=1
New Load.motor_load_p6ulv5989_1 conn=wye bus1=p6ulv5988.1 kV=0.12 kW=1.1665142377047915 kvar=0.2333028475409583 Phases=1 Vminpu=0.0 Vmaxpu=1.2 model=1
New Load.motor_load_p6ulv5990_1 conn=wye bus1=p6ulv5990.1 kV=0.12 kW=1.2583499237350797 kvar=0.25166998474701596 Phases=1 Vminpu=0.0 Vmaxpu=1.2 model=1
New Load.motor_load_p6ulv5992_1 conn=wye bus1=p6ulv5992.1 kV=0.12 kW=1.1896899448632992 kvar=0.23793798897265983 Phases=1 Vminpu=0.0 Vmaxpu=1.2 model=1
New Load.motor_load_p6ulv5992_2 conn=wye bus1=p6ulv5992.2 kV=0.12 kW=1.2446389661453812 kvar=0.24892779322907624 Phases=1 Vminpu=0.0 Vmaxpu=1.2 model=1
New Load.motor_load_p6ulv5999_2 conn=wye bus1=p6ulv5999.2 kV=0.12 kW=1.0665579926300695 kvar=0.2133115985260139 Phases=1 Vminpu=0.0 Vmaxpu=1.2 model=1
New Load.motor_load_p6ulv6000_1 conn=wye bus1=p6ulv6000.1 kV=0.12 kW=1.137703652329066 kvar=0.22754073046581322 Phases=1 Vminpu=0.0 Vmaxpu=1.2 model=1
New Load.motor_load_p6ulv6000_2 conn=wye bus1=p6ulv6000.2 kV=0.12 kW=1.0955811465356065 kvar=0.2191162293071213 Phases=1 Vminpu=0.0 Vmaxpu=1.2 model=1
New Load.motor_load_p6ulv6006_1 conn=wye bus1=p6ulv6006.1 kV=0.12 kW=1.1323782448682311 kvar=0.22647564897364625 Phases=1 Vminpu=0.0 Vmaxpu=1.2 model=1
New Load.motor_load_p6ulv6678_1 conn=wye bus1=p6ulv6678.1 kV=0.12 kW=1.2202787276313443 kvar=0.24405574552626885 Phases=1 Vminpu=0.0 Vmaxpu=1.2 model=1
New Load.motor_load_p6ulv6680_2 conn=wye bus1=p6ulv6680.2 kV=0.12 kW=1.070394400853355 kvar=0.214078880170671 Phases=1 Vminpu=0.0 Vmaxpu=1.2 model=1
New Load.motor_load_p6ulv6681_1 conn=wye bus1=p6ulv6681.1 kV=0.12 kW=1.1018934996072167 kvar=0.22037869992144335 Phases=1 Vminpu=0.0 Vmaxpu=1.2 model=1
New Load.motor_load_p6ulv6684_1 conn=wye bus1=p6ulv6684.1 kV=0.12 kW=1.067444166003135 kvar=0.21348883320062703 Phases=1 Vminpu=0.0 Vmaxpu=1.2 model=1
New Load.motor_load_p6ulv6684_2 conn=wye bus1=p6ulv6684.2 kV=0.12 kW=1.212647153473344 kvar=0.2425294306946688 Phases=1 Vminpu=0.0 Vmaxpu=1.2 model=1
New Load.motor_load_p6ulv6685_2 conn=wye bus1=p6ulv6685.2 kV=0.12 kW=1.1162659340568246 kvar=0.22325318681136494 Phases=1 Vminpu=0.0 Vmaxpu=1.2 model=1
New Load.motor_load_p6ulv6686_1 conn=wye bus1=p6ulv6686.1 kV=0.12 kW=1.1259803137962068 kvar=0.22519606275924137 Phases=1 Vminpu=0.0 Vmaxpu=1.2 model=1
New Load.motor_load_p6ulv6687_1 conn=wye bus1=p6ulv6685.1 kV=0.12 kW=1.1396821364990077 kvar=0.22793642729980157 Phases=1 Vminpu=0.0 Vmaxpu=1.2 model=1
New Load.motor_load_p6ulv6688_1 conn=wye bus1=p6ulv6688.1 kV=0.12 kW=1.0556711257489317 kvar=0.21113422514978636 Phases=1 Vminpu=0.0 Vmaxpu=1.2 model=1
New Load.motor_load_p6ulv6688_2 conn=wye bus1=p6ulv6688.2 kV=0.12 kW=1.1807923742455089 kvar=0.2361584748491018 Phases=1 Vminpu=0.0 Vmaxpu=1.2 model=1
New Load.motor_load_p6ulv6689_1 conn=wye bus1=p6ulv6689.1 kV=0.12 kW=1.1591723632506106 kvar=0.23183447265012214 Phases=1 Vminpu=0.0 Vmaxpu=1.2 model=1
New Load.motor_load_p6ulv6690_1 conn=wye bus1=p6ulv6690.1 kV=0.12 kW=1.0969540973011342 kvar=0.21939081946022687 Phases=1 Vminpu=0.0 Vmaxpu=1.2 model=1
New Load.motor_load_p6ulv6690_2 conn=wye bus1=p6ulv6690.2 kV=0.12 kW=1.162661621626793 kvar=0.23253232432535864 Phases=1 Vminpu=0.0 Vmaxpu=1.2 model=1
New Load.motor_load_p6ulv6691_2 conn=wye bus1=p6ulv6691.2 kV=0.12 kW=1.203978230954421 kvar=0.2407956461908842 Phases=1 Vminpu=0.0 Vmaxpu=1.2 model=1
New Load.motor_load_p6ulv6695_1 conn=wye bus1=p6ulv6695.1 kV=0.12 kW=1.1955161059514559 kvar=0.23910322119029118 Phases=1 Vminpu=0.0 Vmaxpu=1.2 model=1
New Load.motor_load_p6ulv6696_2 conn=wye bus1=p6ulv6696.2 kV=0.12 kW=1.1477621321651548 kvar=0.22955242643303098 Phases=1 Vminpu=0.0 Vmaxpu=1.2 model=1
New Load.motor_load_p6ulv6697_2 conn=wye bus1=p6ulv6697.2 kV=0.12 kW=1.118601483892286 kvar=0.2237202967784572 Phases=1 Vminpu=0.0 Vmaxpu=1.2 model=1
New Load.motor_load_p6ulv6699_1 conn=wye bus1=p6ulv6699.1 kV=0.12 kW=1.0927864589350085 kvar=0.2185572917870017 Phases=1 Vminpu=0.0 Vmaxpu=1.2 model=1
New Load.motor_load_p6ulv6700_2 conn=wye bus1=p6ulv6700.2 kV=0.12 kW=1.0861964724833144 kvar=0.2172392944966629 Phases=1 Vminpu=0.0 Vmaxpu=1.2 model=1
New Load.motor_load_p6ulv6701_1 conn=wye bus1=p6ulv6701.1 kV=0.12 kW=1.0563252786891726 kvar=0.21126505573783452 Phases=1 Vminpu=0.0 Vmaxpu=1.2 model=1
New Load.motor_load_p6ulv9650_2 conn=wye bus1=p6ulv9650.2 kV=0.12 kW=1.248610148665052 kvar=0.24972202973301041 Phases=1 Vminpu=0.0 Vmaxpu=1.2 model=1
New Load.motor_load_p6ulv9655_2 conn=wye bus1=p6ulv9655.2 kV=0.12 kW=1.1975462498197902 kvar=0.23950924996395806 Phases=1 Vminpu=0.0 Vmaxpu=1.2 model=1
New Load.motor_load_p6ulv9660_1 conn=wye bus1=p6ulv9660.1 kV=0.12 kW=1.136905542930792 kvar=0.2273811085861584 Phases=1 Vminpu=0.0 Vmaxpu=1.2 model=1
New Load.motor_load_p6ulv9661_2 conn=wye bus1=p6ulv9661.2 kV=0.12 kW=1.2353123405985347 kvar=0.24706246811970695 Phases=1 Vminpu=0.0 Vmaxpu=1.2 model=1
New Load.motor_load_p6ulv9664_2 conn=wye bus1=p6ulv9664.2 kV=0.12 kW=1.0884970199204116 kvar=0.21769940398408233 Phases=1 Vminpu=0.0 Vmaxpu=1.2 model=1
New Load.motor_load_p6ulv9666_2 conn=wye bus1=p6ulv9666.2 kV=0.12 kW=1.2116529811107757 kvar=0.24233059622215514 Phases=1 Vminpu=0.0 Vmaxpu=1.2 model=1
New Load.motor_load_p6ulv9667_1 conn=wye bus1=p6ulv9667.1 kV=0.12 kW=1.2424634047076977 kvar=0.24849268094153953 Phases=1 Vminpu=0.0 Vmaxpu=1.2 model=1
New Load.motor_load_p6ulv9668_1 conn=wye bus1=p6ulv9664.1 kV=0.12 kW=1.1469886390733648 kvar=0.22939772781467296 Phases=1 Vminpu=0.0 Vmaxpu=1.2 model=1
New Load.motor_load_p6ulv9668_2 conn=wye bus1=p6ulv9664.2 kV=0.12 kW=1.1234196611215888 kvar=0.22468393222431776 Phases=1 Vminpu=0.0 Vmaxpu=1.2 model=1
New Load.motor_load_p6ulv9670_1 conn=wye bus1=p6ulv9670.1 kV=0.12 kW=1.201418916997453 kvar=0.2402837833994906 Phases=1 Vminpu=0.0 Vmaxpu=1.2 model=1
New Load.motor_load_p6ulv9778_2 conn=wye bus1=p6ulv9778.2 kV=0.12 kW=1.1161737807598702 kvar=0.22323475615197405 Phases=1 Vminpu=0.0 Vmaxpu=1.2 model=1
New Load.motor_load_p6ulv9780_1 conn=wye bus1=p6ulv9780.1 kV=0.12 kW=1.1968778189259421 kvar=0.23937556378518843 Phases=1 Vminpu=0.0 Vmaxpu=1.2 model=1
New Load.motor_load_p6ulv9780_2 conn=wye bus1=p6ulv9780.2 kV=0.12 kW=1.0843721593026157 kvar=0.21687443186052313 Phases=1 Vminpu=0.0 Vmaxpu=1.2 model=1
New Load.motor_load_p6ulv9781_2 conn=wye bus1=p6ulv9781.2 kV=0.12 kW=1.1600517635979157 kvar=0.23201035271958315 Phases=1 Vminpu=0.0 Vmaxpu=1.2 model=1
New Load.motor_load_p6ulv10965_1 conn=wye bus1=p6ulv10965.1 kV=0.12 kW=1.2251001874371452 kvar=0.24502003748742907 Phases=1 Vminpu=0.0 Vmaxpu=1.2 model=1
New Load.motor_load_p6ulv10965_2 conn=wye bus1=p6ulv10965.2 kV=0.12 kW=1.1527744291951563 kvar=0.23055488583903128 Phases=1 Vminpu=0.0 Vmaxpu=1.2 model=1
New Load.motor_load_p6ulv10967_1 conn=wye bus1=p6ulv10967.1 kV=0.12 kW=1.114136582474912 kvar=0.22282731649498244 Phases=1 Vminpu=0.0 Vmaxpu=1.2 model=1
New Load.motor_load_p6ulv10967_2 conn=wye bus1=p6ulv10967.2 kV=0.12 kW=1.1527502627128756 kvar=0.23055005254257513 Phases=1 Vminpu=0.0 Vmaxpu=1.2 model=1
New Load.motor_load_p6ulv10968_1 conn=wye bus1=p6ulv10968.1 kV=0.12 kW=1.0656114939979235 kvar=0.21312229879958472 Phases=1 Vminpu=0.0 Vmaxpu=1.2 model=1
New Load.motor_load_p6ulv10970_1 conn=wye bus1=p6ulv10970.1 kV=0.12 kW=1.2425446834868423 kvar=0.24850893669736848 Phases=1 Vminpu=0.0 Vmaxpu=1.2 model=1
New Load.motor_load_p6ulv10972_2 conn=wye bus1=p6ulv10972.2 kV=0.12 kW=1.1014855847843956 kvar=0.22029711695687915 Phases=1 Vminpu=0.0 Vmaxpu=1.2 model=1
New Load.motor_load_p6ulv10973_2 conn=wye bus1=p6ulv10973.2 kV=0.12 kW=1.137781272079011 kvar=0.2275562544158022 Phases=1 Vminpu=0.0 Vmaxpu=1.2 model=1
New Load.motor_load_p6ulv10974_2 conn=wye bus1=p6ulv10974.2 kV=0.12 kW=1.09182460346092 kvar=0.21836492069218402 Phases=1 Vminpu=0.0 Vmaxpu=1.2 model=1
New Load.motor_load_p6ulv10975_2 conn=wye bus1=p6ulv10975.2 kV=0.12 kW=1.0811334426345613 kvar=0.2162266885269123 Phases=1 Vminpu=0.0 Vmaxpu=1.2 model=1
New Load.motor_load_p6ulv10977_1 conn=wye bus1=p6ulv10977.1 kV=0.12 kW=1.2052376222617573 kvar=0.24104752445235147 Phases=1 Vminpu=0.0 Vmaxpu=1.2 model=1
New Load.motor_load_p6ulv10978_1 conn=wye bus1=p6ulv10978.1 kV=0.12 kW=1.243731087820896 kvar=0.24874621756417922 Phases=1 Vminpu=0.0 Vmaxpu=1.2 model=1
New Load.motor_load_p6ulv10979_2 conn=wye bus1=p6ulv10979.2 kV=0.12 kW=1.1942052385846558 kvar=0.23884104771693115 Phases=1 Vminpu=0.0 Vmaxpu=1.2 model=1
New Load.motor_load_p6ulv10982_2 conn=wye bus1=p6ulv10982.2 kV=0.12 kW=1.2592458166231404 kvar=0.2518491633246281 Phases=1 Vminpu=0.0 Vmaxpu=1.2 model=1
New Load.motor_load_p6ulv10983_1 conn=wye bus1=p6ulv10983.1 kV=0.12 kW=1.150240329490416 kvar=0.23004806589808321 Phases=1 Vminpu=0.0 Vmaxpu=1.2 model=1
New Load.motor_load_p6ulv10986_2 conn=wye bus1=p6ulv10986.2 kV=0.12 kW=1.1635975733159527 kvar=0.23271951466319055 Phases=1 Vminpu=0.0 Vmaxpu=1.2 model=1
New Load.motor_load_p6ulv10988_1 conn=wye bus1=p6ulv10988.1 kV=0.12 kW=1.1579808401386353 kvar=0.2315961680277271 Phases=1 Vminpu=0.0 Vmaxpu=1.2 model=1
New Load.motor_load_p6ulv10989_1 conn=wye bus1=p6ulv10989.1 kV=0.12 kW=1.1640616472509522 kvar=0.23281232945019045 Phases=1 Vminpu=0.0 Vmaxpu=1.2 model=1
New Load.motor_load_p6ulv10989_2 conn=wye bus1=p6ulv10989.2 kV=0.12 kW=1.1246131513101385 kvar=0.22492263026202772 Phases=1 Vminpu=0.0 Vmaxpu=1.2 model=1
New Load.motor_load_p6ulv10992_2 conn=wye bus1=p6ulv10992.2 kV=0.12 kW=1.1538657643412327 kvar=0.23077315286824654 Phases=1 Vminpu=0.0 Vmaxpu=1.2 model=1
New Load.motor_load_p6ulv10993_2 conn=wye bus1=p6ulv10993.2 kV=0.12 kW=1.206013376944399 kvar=0.24120267538887982 Phases=1 Vminpu=0.0 Vmaxpu=1.2 model=1
New Load.motor_load_p6ulv10994_2 conn=wye bus1=p6ulv10994.2 kV=0.12 kW=1.145053743041606 kvar=0.22901074860832119 Phases=1 Vminpu=0.0 Vmaxpu=1.2 model=1
New Load.motor_load_p6ulv10995_1 conn=wye bus1=p6ulv10995.1 kV=0.12 kW=1.087407562342552 kvar=0.21748151246851044 Phases=1 Vminpu=0.0 Vmaxpu=1.2 model=1
New Load.motor_load_p6ulv10995_2 conn=wye bus1=p6ulv10995.2 kV=0.12 kW=1.1326509683695603 kvar=0.22653019367391206 Phases=1 Vminpu=0.0 Vmaxpu=1.2 model=1
New Load.motor_load_p6ulv10996_2 conn=wye bus1=p6ulv10996.2 kV=0.12 kW=1.1261584522766863 kvar=0.22523169045533728 Phases=1 Vminpu=0.0 Vmaxpu=1.2 model=1
New Load.motor_load_p6ulv10997_2 conn=wye bus1=p6ulv10997.2 kV=0.12 kW=1.0609932337535752 kvar=0.21219864675071506 Phases=1 Vminpu=0.0 Vmaxpu=1.2 model=1
New Load.motor_load_p6ulv10998_1 conn=wye bus1=p6ulv10998.1 kV=0.12 kW=1.1775467455476445 kvar=0.23550934910952892 Phases=1 Vminpu=0.0 Vmaxpu=1.2 model=1
New Load.motor_load_p6ulv10999_1 conn=wye bus1=p6ulv10999.1 kV=0.12 kW=1.1342303834239118 kvar=0.22684607668478238 Phases=1 Vminpu=0.0 Vmaxpu=1.2 model=1
New Load.motor_load_p6ulv11001_1 conn=wye bus1=p6ulv11001.1 kV=0.12 kW=1.1673515857087455 kvar=0.23347031714174912 Phases=1 Vminpu=0.0 Vmaxpu=1.2 model=1