New Generator.pv_load_p6ulv975_2 conn=wye bus1=p6ulv975.2 kV=0.12 model=7 kW=0.24046284014020394 kvar=-0.0 Phases=1
New Generator.pv_load_p6ulv5744_2 conn=wye bus1=p6ulv5744.2 kV=0.12 model=7 kW=0.07213870175466469 kvar=-0.0 Phases=1
New Generator.pv_load_p6ulv5748_1 conn=wye bus1=p6ulv5748.1 kV=0.12 model=7 kW=0.2915605549485622 kvar=-0.0 Phases=1
New Generator.pv_load_p6ulv5750_1 conn=wye bus1=p6ulv5750.1 kV=0.12 model=7 kW=0.5335262690537179 kvar=-0.0 Phases=1
New Generator.pv_load_p6ulv5750_2 conn=wye bus1=p6ulv5750.2 kV=0.12 model=7 kW=0.5335262690537179 kvar=-0.0 Phases=1
New Generator.pv_load_p6ulv5754_1 conn=wye bus1=p6ulv5754.1 kV=0.12 model=7 kW=0.46439256379197413 kvar=-0.0 Phases=1
New Generator.pv_load_p6ulv5755_1 conn=wye bus1=p6ulv5755.1 kV=0.12 model=7 kW=0.28554905908875533 kvar=-0.0 Phases=1
New Generator.pv_load_p6ulv5758_1 conn=wye bus1=p6ulv5758.1 kV=0.12 model=7 kW=0.3982661093340988 kvar=-0.0 Phases=1
New Generator.pv_load_p6ulv5759_1 conn=wye bus1=p6ulv5759.1 kV=0.12 model=7 kW=0.3546812614765341 kvar=-0.0 Phases=1
New Generator.pv_load_p6ulv5759_2 conn=wye bus1=p6ulv5759.2 kV=0.12 model=7 kW=0.3546812614765341 kvar=-0.0 Phases=1
New Generator.pv_load_p6ulv5762_1 conn=wye bus1=p6ulv5762.1 kV=0.12 model=7 kW=0.31109791649293445 kvar=-0.0 Phases=1
New Generator.pv_load_p6ulv5763_1 conn=wye bus1=p6ulv5763.1 kV=0.12 model=7 kW=0.2539887058247694 kvar=-0.0 Phases=1
New Generator.pv_load_p6ulv5765_2 conn=wye bus1=p6ulv5765.2 kV=0.12 model=7 kW=0.3306352780373067 kvar=-0.0 Phases=1
New Generator.pv_load_p6ulv5767_1 conn=wye bus1=p6ulv5767.1 kV=0.12 model=7 kW=0.22994272238554195 kvar=-0.0 Phases=1
New Generator.pv_load_p6ulv5777_1 conn=wye bus1=p6ulv5777.1 kV=0.12 model=7 kW=0.16231189108874994 kvar=-0.0 Phases=1
New Generator.pv_load_p6ulv5778_1 conn=wye bus1=p6ulv5778.1 kV=0.12 model=7 kW=0.24046284014020394 kvar=-0.0 Phases=1
New Generator.pv_load_p6ulv5779_1 conn=wye bus1=p6ulv5779.1 kV=0.12 model=7 kW=0.22392972365177016 kvar=-0.0 Phases=1
New Generator.pv_load_p6ulv5784_1 conn=wye bus1=p6ulv5784.1 kV=0.12 model=7 kW=0.2660116975443831 kvar=-0.0 Phases=1
New Generator.pv_load_p6ulv5784_2 conn=wye bus1=p6ulv5784.2 kV=0.12 model=7 kW=0.2660116975443831 kvar=-0.0 Phases=1
New Generator.pv_load_p6ulv5785_1 conn=wye bus1=p6ulv5785.1 kV=0.12 model=7 kW=0.17884350470321878 kvar=-0.0 Phases=1
New Generator.pv_load_p6ulv5788_2 conn=wye bus1=p6ulv5788.2 kV=0.12 model=7 kW=0.15479752126399138 kvar=-0.0 Phases=1
New Generator.pv_load_p6ulv5789_2 conn=wye bus1=p6ulv5789.2 kV=0.12 model=7 kW=0.24046284014020394 kvar=-0.0 Phases=1
New Generator.pv_load_p6ulv5793_1 conn=wye bus1=p6ulv5793.1 kV=0.12 model=7 kW=0.25248583185981766 kvar=-0.0 Phases=1
New Generator.pv_load_p6ulv5794_1 conn=wye bus1=p6ulv5794.1 kV=0.12 model=7 kW=0.23294847031544538 kvar=-0.0 Phases=1
New Generator.pv_load_p6ulv5796_2 conn=wye bus1=p6ulv5796.2 kV=0.12 model=7 kW=0.5756067400723658 kvar=-0.0 Phases=1
New Generator.pv_load_p6ulv5802_1 conn=wye bus1=p6ulv5802.1 kV=0.12 model=7 kW=0.18786074849292905 kvar=-0.0 Phases=1
New Generator.pv_load_p6ulv5803_1 conn=wye bus1=p6ulv5803.1 kV=0.12 model=7 kW=0.18936362245788077 kvar=-0.0 Phases=1
New Generator.pv_load_p6ulv5804_2 conn=wye bus1=p6ulv5804.2 kV=0.12 model=7 kW=0.08566471772662661 kvar=-0.0 Phases=1
New Generator.pv_load_p6ulv5806_1 conn=wye bus1=p6ulv5806.1 kV=0.12 model=7 kW=0.24948008392991425 kvar=-0.0 Phases=1
New Generator.pv_load_p6ulv5812_1 conn=wye bus1=p6ulv5812.1 kV=0.12 model=7 kW=0.3126007904578862 kvar=-0.0 Phases=1
New Generator.pv_load_p6ulv5814_1 conn=wye bus1=p6ulv5814.1 kV=0.12 model=7 kW=0.3306352780373067 kvar=-0.0 Phases=1
New Generator.pv_load_p6ulv5815_1 conn=wye bus1=p6ulv5815.1 kV=0.12 model=7 kW=0.26150307564952796 kvar=-0.0 Phases=1
New Generator.pv_load_p6ulv5815_2 conn=wye bus1=p6ulv5815.2 kV=0.12 model=7 kW=0.26150307564952796 kvar=-0.0 Phases=1
New Generator.pv_load_p6ulv5818_1 conn=wye bus1=p6ulv5818.1 kV=0.12 model=7 kW=0.4959529170559602 kvar=-0.0 Phases=1
New Generator.pv_load_p6ulv5818_2 conn=wye bus1=p6ulv5818.2 kV=0.12 model=7 kW=0.4959529170559602 kvar=-0.0 Phases=1
New Generator.pv_load_p6ulv5823_2 conn=wye bus1=p6ulv5823.2 kV=0.12 model=7 kW=0.19988374021254274 kvar=-0.0 Phases=1
New Generator.pv_load_p6ulv5826_1 conn=wye bus1=p6ulv5826.1 kV=0.12 model=7 kW=0.20138661417749446 kvar=-0.0 Phases=1
New Generator.pv_load_p6ulv5831_1 conn=wye bus1=p6ulv5831.1 kV=0.12 model=7 kW=0.2660116975443831 kvar=-0.0 Phases=1
New Generator.pv_load_p6ulv5833_2 conn=wye bus1=p6ulv5833.2 kV=0.12 model=7 kW=0.08867046565653004 kvar=-0.0 Phases=1
New Generator.pv_load_p6ulv5835_2 conn=wye bus1=p6ulv5835.2 kV=0.12 model=7 kW=0.25248583185981766 kvar=-0.0 Phases=1
New Generator.pv_load_p6ulv5837_1 conn=wye bus1=p6ulv5837.1 kV=0.12 model=7 kW=0.360692757336341 kvar=-0.0 Phases=1
New Generator.pv_load_p6ulv5838_2 conn=wye bus1=p6ulv5838.2 kV=0.12 model=7 kW=0.3621956313012927 kvar=-0.0 Phases=1
New Generator.pv_load_p6ulv5839_2 conn=wye bus1=p6ulv5839.2 kV=0.12 model=7 kW=0.24346858807010738 kvar=-0.0 Phases=1
New Generator.pv_load_p6ulv5841_2 conn=wye bus1=p6ulv5841.2 kV=0.12 model=7 kW=0.38624311761448504 kvar=-0.0 Phases=1
New Generator.pv_load_p6ulv5842_2 conn=wye bus1=p6ulv5842.2 kV=0.12 model=7 kW=0.2584973277196246 kvar=-0.0 Phases=1
New Generator.pv_load_p6ulv5843_2 conn=wye bus1=p6ulv5843.2 kV=0.12 model=7 kW=0.2043923621073979 kvar=-0.0 Phases=1
New Generator.pv_load_p6ulv5845_1 conn=wye bus1=p6ulv5845.1 kV=0.12 model=7 kW=2.177679403954681 kvar=-0.0 Phases=1
New Generator.pv_load_p6ulv5851_1 conn=wye bus1=p6ulv5851.1 kV=0.12 model=7 kW=0.616184337126062 kvar=-0.0 Phases=1
New Generator.pv_load_p6ulv5852_2 conn=wye bus1=p6ulv5852.2 kV=0.12 model=7 kW=0.44936382414245696 kvar=-0.0 Phases=1
New Generator.pv_load_p6ulv5854_1 conn=wye bus1=p6ulv5854.1 kV=0.12 model=7 kW=0.33664677389711356 kvar=-0.0 Phases=1
New Generator.pv_load_p6ulv5857_1 conn=wye bus1=p6ulv5857.1 kV=0.12 model=7 kW=0.3065892945980793 kvar=-0.0 Phases=1
New Generator.pv_load_p6ulv5858_2 conn=wye bus1=p6ulv5858.2 kV=0.12 model=7 kW=0.2825433111588519 kvar=-0.0 Phases=1
New Generator.pv_load_p6ulv5861_1 conn=wye bus1=p6ulv5861.1 kV=0.12 model=7 kW=0.2825433111588519 kvar=-0.0 Phases=1
New Generator.pv_load_p6ulv5866_1 conn=wye bus1=p6ulv5866.1 kV=0.12 model=7 kW=0.3126007904578862 kvar=-0.0 Phases=1
New Generator.pv_load_p6ulv5868_1 conn=wye bus1=p6ulv5868.1 kV=0.12 model=7 kW=0.21791822779196332 kvar=-0.0 Phases=1
New Generator.pv_load_p6ulv5869_2 conn=wye bus1=p6ulv5869.2 kV=0.12 model=7 kW=0.21491247986205989 kvar=-0.0 Phases=1
New Generator.pv_load_p6ulv5871_1 conn=wye bus1=p6ulv5871.1 kV=0.12 model=7 kW=0.329132404072355 kvar=-0.0 Phases=1
New Generator.pv_load_p6ulv5872_2 conn=wye bus1=p6ulv5872.2 kV=0.12 model=7 kW=0.28855480701865877 kvar=-0.0 Phases=1
New Generator.pv_load_p6ulv5875_1 conn=wye bus1=p6ulv5875.1 kV=0.12 model=7 kW=0.470404059651781 kvar=-0.0 Phases=1
New Generator.pv_load_p6ulv5875_2 conn=wye bus1=p6ulv5875.2 kV=0.12 model=7 kW=0.470404059651781 kvar=-0.0 Phases=1
New Generator.pv_load_p6ulv5880_1 conn=wye bus1=p6ulv5880.1 kV=0.12 model=7 kW=0.2810404371939002 kvar=-0.0 Phases=1
New Generator.pv_load_p6ulv5884_1 conn=wye bus1=p6ulv5884.1 kV=0.12 model=7 kW=0.491444295161105 kvar=-0.0 Phases=1
New Generator.pv_load_p6ulv5888_1 conn=wye bus1=p6ulv5888.1 kV=0.12 model=7 kW=0.29456630287846564 kvar=-0.0 Phases=1
New Generator.pv_load_p6ulv5888_2 conn=wye bus1=p6ulv5888.2 kV=0.12 model=7 kW=0.29456630287846564 kvar=-0.0 Phases=1
New Generator.pv_load_p6ulv5889_1 conn=wye bus1=p6ulv5889.1 kV=0.12 model=7 kW=0.3652013792311961 kvar=-0.0 Phases=1
New Generator.pv_load_p6ulv5891_1 conn=wye bus1=p6ulv5891.1 kV=0.12 model=7 kW=0.22092397572186676 kvar=-0.0 Phases=1
New Generator.pv_load_p6ulv5892_2 conn=wye bus1=p6ulv5892.2 kV=0.12 model=7 kW=0.14728315143923282 kvar=-0.0 Phases=1
New Generator.pv_load_p6ulv5893_1 conn=wye bus1=p6ulv5893.1 kV=0.12 model=7 kW=0.15479752126399138 kvar=-0.0 Phases=1
New Generator.pv_load_p6ulv5895_1 conn=wye bus1=p6ulv5895.1 kV=0.12 model=7 kW=0.2870519330537071 kvar=-0.0 Phases=1
New Generator.pv_load_p6ulv5895_2 conn=wye bus1=p6ulv5895.2 kV=0.12 model=7 kW=0.2870519330537071 kvar=-0.0 Phases=1
New Generator.pv_load_p6ulv5901_1 conn=wye bus1=p6ulv5901.1 kV=0.12 model=7 kW=0.22843984842059023 kvar=-0.0 Phases=1
New Generator.pv_load_p6ulv5902_2 conn=wye bus1=p6ulv5902.2 kV=0.12 model=7 kW=0.39676323536914704 kvar=-0.0 Phases=1
New Generator.pv_load_p6ulv5903_2 conn=wye bus1=p6ulv5903.2 kV=0.12 model=7 kW=0.22392972365177016 kvar=-0.0 Phases=1
New Generator.pv_load_p6ulv5907_1 conn=wye bus1=p6ulv5907.1 kV=0.12 model=7 kW=0.3050864206331276 kvar=-0.0 Phases=1
New Generator.pv_load_p6ulv5909_2 conn=wye bus1=p6ulv5909.2 kV=0.12 model=7 kW=0.3802316217546783 kvar=-0.0 Phases=1
New Generator.pv_load_p6ulv5913_2 conn=wye bus1=p6ulv5913.2 kV=0.12 model=7 kW=0.3381496478620653 kvar=-0.0 Phases=1
New Generator.pv_load_p6ulv5914_2 conn=wye bus1=p6ulv5914.2 kV=0.12 model=7 kW=0.24948008392991425 kvar=-0.0 Phases=1
New Generator.pv_load_p6ulv5916_2 conn=wye bus1=p6ulv5916.2 kV=0.12 model=7 kW=0.120231119495309 kvar=-0.0 Phases=1
New Generator.pv_load_p6ulv5917_2 conn=wye bus1=p6ulv5917.2 kV=0.12 model=7 kW=0.27803468926399677 kvar=-0.0 Phases=1
New Generator.pv_load_p6ulv5918_2 conn=wye bus1=p6ulv5918.2 kV=0.12 model=7 kW=0.3546812614765341 kvar=-0.0 Phases=1
New Generator.pv_load_p6ulv5923_1 conn=wye bus1=p6ulv5922.1 kV=0.12 model=7 kW=0.21791822779196332 kvar=-0.0 Phases=1
New Generator.pv_load_p6ulv5925_2 conn=wye bus1=p6ulv5925.2 kV=0.12 model=7 kW=0.3306352780373067 kvar=-0.0 Phases=1
New Generator.pv_load_p6ulv5932_1 conn=wye bus1=p6ulv5932.1 kV=0.12 model=7 kW=0.34265826975692043 kvar=-0.0 Phases=1
New Generator.pv_load_p6ulv5940_1 conn=wye bus1=p6ulv5940.1 kV=0.12 model=7 kW=0.3246237821774999 kvar=-0.0 Phases=1
New Generator.pv_load_p6ulv5940_2 conn=wye bus1=p6ulv5940.2 kV=0.12 model=7 kW=0.3246237821774999 kvar=-0.0 Phases=1
New Generator.pv_load_p6ulv5943_1 conn=wye bus1=p6ulv5943.1 kV=0.12 model=7 kW=0.21340960589710817 kvar=-0.0 Phases=1
New Generator.pv_load_p6ulv5945_2 conn=wye bus1=p6ulv5945.2 kV=0.12 model=7 kW=0.2344513442803971 kvar=-0.0 Phases=1
New Generator.pv_load_p6ulv5948_2 conn=wye bus1=p6ulv5948.2 kV=0.12 model=7 kW=0.31861228631769306 kvar=-0.0 Phases=1
New Generator.pv_load_p6ulv5953_2 conn=wye bus1=p6ulv5953.2 kV=0.12 model=7 kW=0.23595421824534882 kvar=-0.0 Phases=1
New Generator.pv_load_p6ulv5958_1 conn=wye bus1=p6ulv5958.1 kV=0.12 model=7 kW=0.4313293365630364 kvar=-0.0 Phases=1
New Generator.pv_load_p6ulv5960_1 conn=wye bus1=p6ulv5960.1 kV=0.12 model=7 kW=0.2765318152990451 kvar=-0.0 Phases=1
New Generator.pv_load_p6ulv5961_1 conn=wye bus1=p6ulv5961.1 kV=0.12 model=7 kW=0.20890098400225304 kvar=-0.0 Phases=1
New Generator.pv_load_p6ulv5966_1 conn=wye bus1=p6ulv5966.1 kV=0.12 model=7 kW=0.46138681586207075 kvar=-0.0 Phases=1
New Generator.pv_load_p6ulv5968_2 conn=wye bus1=p6ulv5968.2 kV=0.12 model=7 kW=0.5094787827405255 kvar=-0.0 Phases=1
New Generator.pv_load_p6ulv5970_1 conn=wye bus1=p6ulv5970.1 kV=0.12 model=7 kW=0.49745579102091175 kvar=-0.0 Phases=1
New Generator.pv_load_p6ulv5972_1 conn=wye bus1=p6ulv5972.1 kV=0.12 model=7 kW=0.3621956313012927 kvar=-0.0 Phases=1
New Generator.pv_load_p6ulv5978_1 conn=wye bus1=p6ulv5978.1 kV=0.12 model=7 kW=0.13826575736212604 kvar=-0.0 Phases=1
New Generator.pv_load_p6ulv5979_2 conn=wye bus1=p6ulv5979.2 kV=0.12 model=7 kW=0.25699445375467284 kvar=-0.0 Phases=1
New Generator.pv_load_p6ulv5982_2 conn=wye bus1=p6ulv5982.2 kV=0.12 model=7 kW=0.3156065383877897 kvar=-0.0 Phases=1
New Generator.pv_load_p6ulv5984_1 conn=wye bus1=p6ulv5984.1 kV=0.12 model=7 kW=0.3141036644228379 kvar=-0.0 Phases=1
New Generator.pv_load_p6ulv5986_1 conn=wye bus1=p6ulv5986.1 kV=0.12 model=7 kW=0.32762953010740326 kvar=-0.0 Phases=1
New Generator.pv_load_p6ulv5990_2 conn=wye bus1=p6ulv5990.2 kV=0.12 model=7 kW=0.35768700940643755 kvar=-0.0 Phases=1
New Generator.pv_load_p6ulv5991_2 conn=wye bus1=p6ulv5991.2 kV=0.12 model=7 kW=0.308092168563031 kvar=-0.0 Phases=1
New Generator.pv_load_p6ulv5993_2 conn=wye bus1=p6ulv5993.2 kV=0.12 model=7 kW=0.4208092188083745 kvar=-0.0 Phases=1
New Generator.pv_load_p6ulv5995_2 conn=wye bus1=p6ulv5994.2 kV=0.12 model=7 kW=0.4057804791588573 kvar=-0.0 Phases=1
New Generator.pv_load_p6ulv5996_1 conn=wye bus1=p6ulv5996.1 kV=0.12 model=7 kW=0.37421862302090636 kvar=-0.0 Phases=1
New Generator.pv_load_p6ulv5998_1 conn=wye bus1=p6ulv5998.1 kV=0.12 model=7 kW=0.3020806727032242 kvar=-0.0 Phases=1
New Generator.pv_load_p6ulv5999_1 conn=wye bus1=p6ulv5999.1 kV=0.12 model=7 kW=0.41479772294856765 kvar=-0.0 Phases=1
New Generator.pv_load_p6ulv6002_1 conn=wye bus1=p6ulv6002.1 kV=0.12 model=7 kW=0.35017263958167905 kvar=-0.0 Phases=1
New Generator.pv_load_p6ulv6005_2 conn=wye bus1=p6ulv6005.2 kV=0.12 model=7 kW=0.33514389993216187 kvar=-0.0 Phases=1
New Generator.pv_load_p6ulv6007_2 conn=wye bus1=p6ulv6007.2 kV=0.12 model=7 kW=0.31109791649293445 kvar=-0.0 Phases=1
New Generator.pv_load_p6ulv6683_2 conn=wye bus1=p6ulv6683.2 kV=0.12 model=7 kW=1.3706345819016468 kvar=-0.0 Phases=1
New Generator.pv_load_p6ulv6688_1 conn=wye bus1=p6ulv6688.1 kV=0.12 model=7 kW=0.24797720996496253 kvar=-0.0 Phases=1
New Generator.pv_load_p6ulv6689_1 conn=wye bus1=p6ulv6689.1 kV=0.12 model=7 kW=0.17433488280836365 kvar=-0.0 Phases=1
New Generator.pv_load_p6ulv6690_1 conn=wye bus1=p6ulv6690.1 kV=0.12 model=7 kW=0.14277437925698117 kvar=-0.0 Phases=1
New Generator.pv_load_p6ulv6695_2 conn=wye bus1=p6ulv6695.2 kV=0.12 model=7 kW=0.12173399346026069 kvar=-0.0 Phases=1
New Generator.pv_load_p6ulv6696_1 conn=wye bus1=p6ulv6696.1 kV=0.12 model=7 kW=1.2984966315839646 kvar=-0.0 Phases=1
New Generator.pv_load_p6ulv6699_2 conn=wye bus1=p6ulv6699.2 kV=0.12 model=7 kW=0.3126007904578862 kvar=-0.0 Phases=1
New Generator.pv_load_p6ulv6701_1 conn=wye bus1=p6ulv6701.1 kV=0.12 model=7 kW=0.1457802774742811 kvar=-0.0 Phases=1
New Generator.pv_load_p6ulv6701_2 conn=wye bus1=p6ulv6701.2 kV=0.12 model=7 kW=0.1457802774742811 kvar=-0.0 Phases=1
New Generator.pv_load_p6ulv9650_2 conn=wye bus1=p6ulv9650.2 kV=0.12 model=7 kW=0.18635787452797736 kvar=-0.0 Phases=1
New Generator.pv_load_p6ulv9651_2 conn=wye bus1=p6ulv9651.2 kV=0.12 model=7 kW=0.11121372541820221 kvar=-0.0 Phases=1
New Generator.pv_load_p6ulv9652_2 conn=wye bus1=p6ulv9652.2 kV=0.12 model=7 kW=0.3832373696845817 kvar=-0.0 Phases=1
New Generator.pv_load_p6ulv9653_1 conn=wye bus1=p6ulv9653.1 kV=0.12 model=7 kW=0.35618413544148586 kvar=-0.0 Phases=1
New Generator.pv_load_p6ulv9655_1 conn=wye bus1=p6ulv9655.1 kV=0.12 model=7 kW=0.4403465803527467 kvar=-0.0 Phases=1
New Generator.pv_load_p6ulv9656_2 conn=wye bus1=p6ulv9656.2 kV=0.12 model=7 kW=0.1352600094322226 kvar=-0.0 Phases=1
New Generator.pv_load_p6ulv9660_2 conn=wye bus1=p6ulv9660.2 kV=0.12 model=7 kW=0.6778036725630472 kvar=-0.0 Phases=1
New Generator.pv_load_p6ulv9663_1 conn=wye bus1=p6ulv9663.1 kV=0.12 model=7 kW=0.2810404371939002 kvar=-0.0 Phases=1
New Generator.pv_load_p6ulv9665_1 conn=wye bus1=p6ulv9665.1 kV=0.12 model=7 kW=0.23595421824534882 kvar=-0.0 Phases=1
New Generator.pv_load_p6ulv9668_2 conn=wye bus1=p6ulv9664.2 kV=0.12 model=7 kW=0.0976878597336368 kvar=-0.0 Phases=1
New Generator.pv_load_p6ulv9669_2 conn=wye bus1=p6ulv9669.2 kV=0.12 model=7 kW=0.21340960589710817 kvar=-0.0 Phases=1
New Generator.pv_load_p6ulv9671_2 conn=wye bus1=p6ulv9671.2 kV=0.12 model=7 kW=0.3261266561424516 kvar=-0.0 Phases=1
New Generator.pv_load_p6ulv9778_1 conn=wye bus1=p6ulv9778.1 kV=0.12 model=7 kW=0.10670510352334708 kvar=-0.0 Phases=1
New Generator.pv_load_p6ulv10965_1 conn=wye bus1=p6ulv10965.1 kV=0.12 model=7 kW=0.13976863132707776 kvar=-0.0 Phases=1
New Generator.pv_load_p6ulv10966_2 conn=wye bus1=p6ulv10966.2 kV=0.12 model=7 kW=0.1923693703877842 kvar=-0.0 Phases=1
New Generator.pv_load_p6ulv10974_2 conn=wye bus1=p6ulv10974.2 kV=0.12 model=7 kW=0.16682051298360506 kvar=-0.0 Phases=1
New Generator.pv_load_p6ulv10975_1 conn=wye bus1=p6ulv10975.1 kV=0.12 model=7 kW=0.22994272238554195 kvar=-0.0 Phases=1
New Generator.pv_load_p6ulv10976_1 conn=wye bus1=p6ulv10976.1 kV=0.12 model=7 kW=0.28855480701865877 kvar=-0.0 Phases=1
New Generator.pv_load_p6ulv10977_2 conn=wye bus1=p6ulv10977.2 kV=0.12 model=7 kW=0.17132913487846022 kvar=-0.0 Phases=1
New Generator.pv_load_p6ulv10978_2 conn=wye bus1=p6ulv10978.2 kV=0.12 model=7 kW=0.06913295382476127 kvar=-0.0 Phases=1
New Generator.pv_load_p6ulv10980_1 conn=wye bus1=p6ulv10980.1 kV=0.12 model=7 kW=0.27352606736914165 kvar=-0.0 Phases=1
New Generator.pv_load_p6ulv10987_1 conn=wye bus1=p6ulv10987.1 kV=0.12 model=7 kW=0.1563003952289431 kvar=-0.0 Phases=1
New Generator.pv_load_p6ulv10989_1 conn=wye bus1=p6ulv10989.1 kV=0.12 model=7 kW=0.3832373696845817 kvar=-0.0 Phases=1
New Generator.pv_load_p6ulv10991_1 conn=wye bus1=p6ulv10991.1 kV=0.12 model=7 kW=0.27502894133409334 kvar=-0.0 Phases=1
New Generator.pv_load_p6ulv10992_1 conn=wye bus1=p6ulv10992.1 kV=0.12 model=7 kW=0.24797720996496253 kvar=-0.0 Phases=1
New Generator.pv_load_p6ulv10996_1 conn=wye bus1=p6ulv10996.1 kV=0.12 model=7 kW=0.41028910105371247 kvar=-0.0 Phases=1
New Generator.pv_load_p6ulv10996_2 conn=wye bus1=p6ulv10996.2 kV=0.12 model=7 kW=0.41028910105371247 kvar=-0.0 Phases=1
New Generator.pv_load_p6ulv10997_1 conn=wye bus1=p6ulv10997.1 kV=0.12 model=7 kW=0.23294847031544538 kvar=-0.0 Phases=1
New Generator.pv_load_p6ulv10998_2 conn=wye bus1=p6ulv10998.2 kV=0.12 model=7 kW=0.13826575736212604 kvar=-0.0 Phases=1
New Generator.pv_load_p6ulv10999_2 conn=wye bus1=p6ulv10999.2 kV=0.12 model=7 kW=0.16832338694855678 kvar=-0.0 Phases=1
New Generator.pv_load_p6ulv11001_1 conn=wye bus1=p6ulv11001.1 kV=0.12 model=7 kW=0.29456630287846564 kvar=-0.0 Phases=1
New Generator.pv_load_p6ulv11002_1 conn=wye bus1=p6ulv11002.1 kV=0.12 model=7 kW=0.2720231934041899 kvar=-0.0 Phases=1
New Generator.pv_load_p6ulv11003_1 conn=wye bus1=p6ulv11003.1 kV=0.12 model=7 kW=0.2795375632289485 kvar=-0.0 Phases=1
New Generator.pv_load_p6ulv11004_1 conn=wye bus1=p6ulv11004.1 kV=0.12 model=7 kW=0.32161803424759644 kvar=-0.0 Phases=1
New Generator.pv_load_p6ulv11007_1 conn=wye bus1=p6ulv11007.1 kV=0.12 model=7 kW=0.15329464729903966 kvar=-0.0 Phases=1
New Generator.pv_load_p6ulv11012_1 conn=wye bus1=p6ulv11012.1 kV=0.12 model=7 kW=0.2660116975443831 kvar=-0.0 Phases=1
New Generator.pv_load_p6ulv11021_2 conn=wye bus1=p6ulv11021.2 kV=0.12 model=7 kW=0.09468196151633687 kvar=-0.0 Phases=1
New Generator.pv_load_p6ulv11022_1 conn=wye bus1=p6ulv11022.1 kV=0.12 model=7 kW=0.1698262609135085 kvar=-0.0 Phases=1
New Generator.pv_load_p6ulv11026_2 conn=wye bus1=p6ulv11026.2 kV=0.12 model=7 kW=0.3621956313012927 kvar=-0.0 Phases=1
New Generator.pv_load_p6ulv11027_1 conn=wye bus1=p6ulv11027.1 kV=0.12 model=7 kW=0.36670425319614786 kvar=-0.0 Phases=1
New Generator.pv_load_p6ulv11029_1 conn=wye bus1=p6ulv11029.1 kV=0.12 model=7 kW=0.3050864206331276 kvar=-0.0 Phases=1
New Generator.pv_load_p6ulv11038_2 conn=wye bus1=p6ulv11038.2 kV=0.12 model=7 kW=0.16682051298360506 kvar=-0.0 Phases=1
New Generator.pv_load_p6ulv11039_1 conn=wye bus1=p6ulv11039.1 kV=0.12 model=7 kW=0.20739811003730133 kvar=-0.0 Phases=1
New Generator.pv_load_p6ulv11041_1 conn=wye bus1=p6ulv11041.1 kV=0.12 model=7 kW=0.19537511831768767 kvar=-0.0 Phases=1
New Generator.pv_load_p6ulv11044_2 conn=wye bus1=p6ulv11044.2 kV=0.12 model=7 kW=0.07965307157942327 kvar=-0.0 Phases=1
New Generator.pv_load_p6ulv11046_1 conn=wye bus1=p6ulv11046.1 kV=0.12 model=7 kW=0.21340960589710817 kvar=-0.0 Phases=1
New Generator.pv_load_p6ulv11049_2 conn=wye bus1=p6ulv11049.2 kV=0.12 model=7 kW=0.22693697445563854 kvar=-0.0 Phases=1
New Generator.pv_load_p6ulv11050_2 conn=wye bus1=p6ulv11050.2 kV=0.12 model=7 kW=0.32161803424759644 kvar=-0.0 Phases=1
New Generator.pv_load_p6ulv11052_1 conn=wye bus1=p6ulv11052.1 kV=0.12 model=7 kW=0.33514389993216187 kvar=-0.0 Phases=1
New Generator.pv_load_p6ulv11052_2 conn=wye bus1=p6ulv11052.2 kV=0.12 model=7 kW=0.33514389993216187 kvar=-0.0 Phases=1
New Generator.pv_load_p6ulv11054_1 conn=wye bus1=p6ulv11054.1 kV=0.12 model=7 kW=0.17283200884341193 kvar=-0.0 Phases=1
New Generator.pv_load_p6ulv11062_1 conn=wye bus1=p6ulv11062.1 kV=0.12 model=7 kW=0.18936362245788077 kvar=-0.0 Phases=1
New Generator.pv_load_p6ulv11062_2 conn=wye bus1=p6ulv11062.2 kV=0.12 model=7 kW=0.18936362245788077 kvar=-0.0 Phases=1
New Generator.pv_load_p6ulv11065_1 conn=wye bus1=p6ulv11065.1 kV=0.12 model=7 kW=0.2705203194392382 kvar=-0.0 Phases=1
New Generator.pv_load_p6ulv11066_2 conn=wye bus1=p6ulv11066.2 kV=0.12 model=7 kW=0.7709818583900535 kvar=-0.0 Phases=1
New Generator.pv_load_p6ulv11068 conn=wye bus1=p6ulv11068.1.2.3 kV=0.48 model=7 kW=25.501005897135055 kvar=-0.0 Phases=3
New Generator.pv_load_p6ulv11073_2 conn=wye bus1=p6ulv11073.2 kV=0.12 model=7 kW=0.42231209277332615 kvar=-0.0 Phases=1
New Generator.pv_load_p6ulv11074 conn=wye bus1=p6ulv11074.1.2.3 kV=0.48 model=7 kW=6.856171143068312 kvar=-0.0 Phases=3
New Generator.pv_load_p6ulv11075 conn=wye bus1=p6ulv11075.1.2.3 kV=0.48 model=7 kW=7.069579246091455 kvar=-0.0 Phases=3
New Generator.pv_load_p6ulv11079_2 conn=wye bus1=p6ulv11079.2 kV=0.12 model=7 kW=0.22392972365177016 kvar=-0.0 Phases=1
New Generator.pv_load_p6ulv11080_1 conn=wye bus1=p6ulv11080.1 kV=0.12 model=7 kW=0.22242684968681845 kvar=-0.0 Phases=1
New Generator.pv_load_p6ulv11082_1 conn=wye bus1=p6ulv11082.1 kV=0.12 model=7 kW=1.4322539173386317 kvar=-0.0 Phases=1
New Generator.pv_load_p6ulv11083_1 conn=wye bus1=p6ulv11083.1 kV=0.12 model=7 kW=2.9276285412052356 kvar=-0.0 Phases=1
New Generator.pv_load_p6ulv11093_1 conn=wye bus1=p6ulv11093.1 kV=0.12 model=7 kW=0.5936412276517864 kvar=-0.0 Phases=1
New Generator.pv_load_p6ulv11097_2 conn=wye bus1=p6ulv11097.2 kV=0.12 model=7 kW=0.15028889936913625 kvar=-0.0 Phases=1
New Generator.pv_load_p6ulv11104_1 conn=wye bus1=p6ulv11104.1 kV=0.12 model=7 kW=2.437691628630977 kvar=-0.0 Phases=1
New Generator.pv_load_p6ulv11104_2 conn=wye bus1=p6ulv11104.2 kV=0.12 model=7 kW=2.437691628630977 kvar=-0.0 Phases=1
New Generator.pv_load_p6ulv11113_2 conn=wye bus1=p6ulv11113.2 kV=0.12 model=7 kW=0.2449714620350591 kvar=-0.0 Phases=1
New Generator.pv_load_p6ulv11115_2 conn=wye bus1=p6ulv11115.2 kV=0.12 model=7 kW=0.19537511831768767 kvar=-0.0 Phases=1
New Generator.pv_load_p6ulv11116_1 conn=wye bus1=p6ulv11116.1 kV=0.12 model=7 kW=0.17433488280836365 kvar=-0.0 Phases=1
New Generator.pv_load_p6ulv11116_2 conn=wye bus1=p6ulv11116.2 kV=0.12 model=7 kW=0.17433488280836365 kvar=-0.0 Phases=1
New Generator.pv_load_p6ulv11118_1 conn=wye bus1=p6ulv11118.1 kV=0.12 model=7 kW=0.26901744547428647 kvar=-0.0 Phases=1
New Generator.pv_load_p6ulv11119_2 conn=wye bus1=p6ulv11119.2 kV=0.12 model=7 kW=0.22092397572186676 kvar=-0.0 Phases=1
New Generator.pv_load_p6ulv11120_2 conn=wye bus1=p6ulv11120.2 kV=0.12 model=7 kW=0.308092168563031 kvar=-0.0 Phases=1
New Generator.pv_load_p6ulv11125_1 conn=wye bus1=p6ulv11125.1 kV=0.12 model=7 kW=0.3231209082125482 kvar=-0.0 Phases=1
New Generator.pv_load_p6ulv11129_1 conn=wye bus1=p6ulv11129.1 kV=0.12 model=7 kW=0.13976863132707776 kvar=-0.0 Phases=1
New Generator.pv_load_p6ulv11130_1 conn=wye bus1=p6ulv11130.1 kV=0.12 model=7 kW=0.13976863132707776 kvar=-0.0 Phases=1
New Generator.pv_load_p6ulv11130_2 conn=wye bus1=p6ulv11130.2 kV=0.12 model=7 kW=0.13976863132707776 kvar=-0.0 Phases=1
New Generator.pv_load_p6ulv11132_1 conn=wye bus1=p6ulv11132.1 kV=0.12 model=7 kW=0.1803463786681705 kvar=-0.0 Phases=1
New Generator.pv_load_p6ulv11135_2 conn=wye bus1=p6ulv11135.2 kV=0.12 model=7 kW=0.2539887058247694 kvar=-0.0 Phases=1
New Generator.pv_load_p6ulv11141_1 conn=wye bus1=p6ulv11141.1 kV=0.12 model=7 kW=0.10670510352334708 kvar=-0.0 Phases=1
New Generator.pv_load_p6ulv11141_2 conn=wye bus1=p6ulv11141.2 kV=0.12 model=7 kW=0.10670510352334708 kvar=-0.0 Phases=1
New Generator.pv_load_p6ulv11142_2 conn=wye bus1=p6ulv11142.2 kV=0.12 model=7 kW=0.18485500056302565 kvar=-0.0 Phases=1
New Generator.pv_load_p6ulv11145_1 conn=wye bus1=p6ulv11145.1 kV=0.12 model=7 kW=0.2795375632289485 kvar=-0.0 Phases=1
New Generator.pv_load_p6ulv11148_2 conn=wye bus1=p6ulv11148.2 kV=0.12 model=7 kW=0.10219648162849194 kvar=-0.0 Phases=1
New Generator.pv_load_p6ulv11151_2 conn=wye bus1=p6ulv11151.2 kV=0.12 model=7 kW=0.2765318152990451 kvar=-0.0 Phases=1
New Generator.pv_load_p6ulv11164_2 conn=wye bus1=p6ulv11164.2 kV=0.12 model=7 kW=0.5094787827405255 kvar=-0.0 Phases=1
New Generator.pv_load_p6ulv11165_2 conn=wye bus1=p6ulv11165.2 kV=0.12 model=7 kW=0.7394215051260675 kvar=-0.0 Phases=1
New Generator.pv_load_p6ulv11170_1 conn=wye bus1=p6ulv11170.1 kV=0.12 model=7 kW=0.18635787452797736 kvar=-0.0 Phases=1
New Generator.pv_load_p6ulv11171_1 conn=wye bus1=p6ulv11171.1 kV=0.12 model=7 kW=0.17884350470321878 kvar=-0.0 Phases=1
New Generator.pv_load_p6ulv11173_2 conn=wye bus1=p6ulv11173.2 kV=0.12 model=7 kW=0.17734063073826706 kvar=-0.0 Phases=1
New Generator.pv_load_p6ulv11174_2 conn=wye bus1=p6ulv11174.2 kV=0.12 model=7 kW=0.12173399346026069 kvar=-0.0 Phases=1
New Generator.pv_load_p6ulv11176_1 conn=wye bus1=p6ulv11176.1 kV=0.12 model=7 kW=0.1698262609135085 kvar=-0.0 Phases=1
New Generator.pv_load_p6ulv11179_1 conn=wye bus1=p6ulv11179.1 kV=0.12 model=7 kW=0.15179177333408797 kvar=-0.0 Phases=1
New Generator.pv_load_p6ulv11179_2 conn=wye bus1=p6ulv11179.2 kV=0.12 model=7 kW=0.15179177333408797 kvar=-0.0 Phases=1
New Generator.pv_load_p6ulv11180_1 conn=wye bus1=p6ulv11180.1 kV=0.12 model=7 kW=0.22543410049068682 kvar=-0.0 Phases=1
New Generator.pv_load_p6ulv11181_2 conn=wye bus1=p6ulv11181.2 kV=0.12 model=7 kW=0.14277437925698117 kvar=-0.0 Phases=1
New Generator.pv_load_p6ulv11183_1 conn=wye bus1=p6ulv11183.1 kV=0.12 model=7 kW=0.12774563960746405 kvar=-0.0 Phases=1
New Generator.pv_load_p6ulv11186_1 conn=wye bus1=p6ulv11186.1 kV=0.12 model=7 kW=0.16682051298360506 kvar=-0.0 Phases=1
New Generator.pv_load_p6ulv11187_2 conn=wye bus1=p6ulv11187.2 kV=0.12 model=7 kW=0.26300594961447965 kvar=-0.0 Phases=1
New Generator.pv_load_p6ulv11190_2 conn=wye bus1=p6ulv11190.2 kV=0.12 model=7 kW=0.2660116975443831 kvar=-0.0 Phases=1
New Generator.pv_load_p6ulv11197_2 conn=wye bus1=p6ulv11197.2 kV=0.12 model=7 kW=0.20138661417749446 kvar=-0.0 Phases=1
New Generator.pv_load_p6ulv11200_1 conn=wye bus1=p6ulv11200.1 kV=0.12 model=7 kW=0.16682051298360506 kvar=-0.0 Phases=1
New Generator.pv_load_p6ulv11202_2 conn=wye bus1=p6ulv11202.2 kV=0.12 model=7 kW=0.1352600094322226 kvar=-0.0 Phases=1
New Generator.pv_load_p6ulv11203_1 conn=wye bus1=p6ulv11203.1 kV=0.12 model=7 kW=0.13976863132707776 kvar=-0.0 Phases=1
New Generator.pv_load_p6ulv11206_2 conn=wye bus1=p6ulv11206.2 kV=0.12 model=7 kW=0.19537511831768767 kvar=-0.0 Phases=1
New Generator.pv_load_p6ulv11207_2 conn=wye bus1=p6ulv11207.2 kV=0.12 model=7 kW=0.17283200884341193 kvar=-0.0 Phases=1
New Generator.pv_load_p6ulv11216_2 conn=wye bus1=p6ulv11216.2 kV=0.12 model=7 kW=0.16832338694855678 kvar=-0.0 Phases=1
New Generator.pv_load_p6ulv11219_1 conn=wye bus1=p6ulv11218.1 kV=0.12 model=7 kW=0.1908664964228325 kvar=-0.0 Phases=1
New Generator.pv_load_p6ulv11227_1 conn=wye bus1=p6ulv11227.1 kV=0.12 model=7 kW=0.09017333962148176 kvar=-0.0 Phases=1
New Generator.pv_load_p6ulv11230_1 conn=wye bus1=p6ulv11230.1 kV=0.12 model=7 kW=0.2554915797897211 kvar=-0.0 Phases=1
New Generator.pv_load_p6ulv11231_2 conn=wye bus1=p6ulv11231.2 kV=0.12 model=7 kW=0.26901744547428647 kvar=-0.0 Phases=1
New Generator.pv_load_p6ulv11233_2 conn=wye bus1=p6ulv11233.2 kV=0.12 model=7 kW=0.23895996617525225 kvar=-0.0 Phases=1
New Generator.pv_load_p6ulv11236_2 conn=wye bus1=p6ulv11236.2 kV=0.12 model=7 kW=0.23294847031544538 kvar=-0.0 Phases=1
New Generator.pv_load_p6ulv11239_1 conn=wye bus1=p6ulv11239.1 kV=0.12 model=7 kW=0.12173399346026069 kvar=-0.0 Phases=1
New Generator.pv_load_p6ulv11245_1 conn=wye bus1=p6ulv11245.1 kV=0.12 model=7 kW=0.10971085145325049 kvar=-0.0 Phases=1
New Generator.pv_load_p6ulv11246_2 conn=wye bus1=p6ulv11246.2 kV=0.12 model=7 kW=0.13976863132707776 kvar=-0.0 Phases=1
New Generator.pv_load_p6ulv11249_2 conn=wye bus1=p6ulv11249.2 kV=0.12 model=7 kW=0.07364157571961641 kvar=-0.0 Phases=1
New Generator.pv_load_p6ulv11252_1 conn=wye bus1=p6ulv11252.1 kV=0.12 model=7 kW=0.08416184376167489 kvar=-0.0 Phases=1
New Generator.pv_load_p6ulv11257_2 conn=wye bus1=p6ulv11257.2 kV=0.12 model=7 kW=0.11572249760045385 kvar=-0.0 Phases=1
New Generator.pv_load_p6ulv11258_2 conn=wye bus1=p6ulv11258.2 kV=0.12 model=7 kW=0.10971085145325049 kvar=-0.0 Phases=1
New Generator.pv_load_p6ulv11260_1 conn=wye bus1=p6ulv11260.1 kV=0.12 model=7 kW=0.120231119495309 kvar=-0.0 Phases=1
New Generator.pv_load_p6ulv11261_2 conn=wye bus1=p6ulv11261.2 kV=0.12 model=7 kW=0.22392972365177016 kvar=-0.0 Phases=1
New Generator.pv_load_p6ulv11262_1 conn=wye bus1=p6ulv11262.1 kV=0.12 model=7 kW=0.11872824553035728 kvar=-0.0 Phases=1
New Generator.pv_load_p6ulv11264_2 conn=wye bus1=p6ulv11264.2 kV=0.12 model=7 kW=0.2660116975443831 kvar=-0.0 Phases=1
New Generator.pv_load_p6ulv11266_1 conn=wye bus1=p6ulv11266.1 kV=0.12 model=7 kW=0.12173399346026069 kvar=-0.0 Phases=1
New Generator.pv_load_p6ulv11266_2 conn=wye bus1=p6ulv11266.2 kV=0.12 model=7 kW=0.12173399346026069 kvar=-0.0 Phases=1
New Generator.pv_load_p6ulv11269_2 conn=wye bus1=p6ulv11269.2 kV=0.12 model=7 kW=0.18485500056302565 kvar=-0.0 Phases=1
New Generator.pv_load_p6ulv11277_1 conn=wye bus1=p6ulv11277.1 kV=0.12 model=7 kW=0.17433488280836365 kvar=-0.0 Phases=1
New Generator.pv_load_p6ulv11281_1 conn=wye bus1=p6ulv11281.1 kV=0.12 model=7 kW=1.9176822080180354 kvar=-0.0 Phases=1
New Generator.pv_load_p6ulv11284_1 conn=wye bus1=p6ulv11284.1 kV=0.12 model=7 kW=0.24196571410515566 kvar=-0.0 Phases=1
New Generator.pv_load_p6ulv11287_2 conn=wye bus1=p6ulv11287.2 kV=0.12 model=7 kW=1.0700567831633743 kvar=-0.0 Phases=1
New Generator.pv_load_p6ulv11293_2 conn=wye bus1=p6ulv11293.2 kV=0.12 model=7 kW=0.1908664964228325 kvar=-0.0 Phases=1